/*---------------------------------------------------------------------------*\
  =========                 |
  \\      /  F ield         | OpenFOAM: The Open Source CFD Toolbox
   \\    /   O peration     | Website:  https://openfoam.org
    \\  /    A nd           | Version:  8
     \\/     M anipulation  |
\*---------------------------------------------------------------------------*/
/*   Windows 32 and 64 bit porting by blueCAPE: http://www.bluecape.com.pt   *\
|  Based on Windows porting (2.0.x v4) by Symscape: http://www.symscape.com   |
\*---------------------------------------------------------------------------*/
Build  : 8-53cd1468e263
Exec   : calcLAI -region air -parallel
Date   : Nov 26 2024
Time   : 16:44:07
Host   : "FOAM2"
PID    : 19980
I/O    : uncollated
Case   : C:/MetaFoam_Cases/CR_VS-UMCF_J-DOE08
nProcs : 12
Slaves : 
11
(
"FOAM2.14724"
"FOAM2.3408"
"FOAM2.20532"
"FOAM2.23928"
"FOAM2.19424"
"FOAM2.16340"
"FOAM2.23376"
"FOAM2.18720"
"FOAM2.19676"
"FOAM2.23288"
"FOAM2.13436"
)

Pstream initialized with:
    floatTransfer      : 0
    nProcsSimpleSum    : 0
    commsType          : nonBlocking
    polling iterations : 0
SigFpe : Enabling floating point exception trapping (FOAM_SIGFPE).
fileModificationChecking : Monitoring run-time modified files using timeStampMaster (fileModificationSkew 10)
allowSystemOperations : Allowing user-supplied system call operations

// * * * * * * * * * * * * * * * * * * * * * * * * * * * * * * * * * * * * * //
Create time

timeDirs: 1(0	0)
Create mesh air for time = 0


Reading g
Gravity is = g [0 1 -2 0 0 0 0] (0 0 -9.81)
Vertical vector : (-0 -0 1)
Creating interpolation setup...

Interpolation from fvMesh to Cartesian mesh...minCellSizeFactor = 10, minCellL = 1.4102982
 took 0.084 second(s).
done !!! 
Interpolation from cartesian to rotated cartesian mesh...

vegLocalCoarseCf 675
Solar ray direction 0, It took 0.047 second(s).
vegLocalCoarseCf 675
Solar ray direction 1, It took 0.034 second(s).
vegLocalCoarseCf 675
Solar ray direction 2, It took 0.045 second(s).
vegLocalCoarseCf 675
Solar ray direction 3, It took 0.064 second(s).
vegLocalCoarseCf 675
Solar ray direction 4, It took 0.047 second(s).

Writing fields: kcLAI boundary

Writing fields: div qrsw

Total time took: 0.602 second(s).

End

Finalising parallel run
