/*---------------------------------------------------------------------------*\
  =========                 |
  \\      /  F ield         | OpenFOAM: The Open Source CFD Toolbox
   \\    /   O peration     | Website:  https://openfoam.org
    \\  /    A nd           | Version:  8
     \\/     M anipulation  |
\*---------------------------------------------------------------------------*/
/*   Windows 32 and 64 bit porting by blueCAPE: http://www.bluecape.com.pt   *\
|  Based on Windows porting (2.0.x v4) by Symscape: http://www.symscape.com   |
\*---------------------------------------------------------------------------*/
Build  : 8-53cd1468e263
Exec   : blockMesh
Date   : Nov 26 2024
Time   : 16:42:57
Host   : "FOAM2"
PID    : 19152
I/O    : uncollated
Case   : C:/MetaFoam_Cases/CR_VS-UMCF_J-DOE08
nProcs : 1
SigFpe : Enabling floating point exception trapping (FOAM_SIGFPE).
fileModificationChecking : Monitoring run-time modified files using timeStampMaster (fileModificationSkew 10)
allowSystemOperations : Allowing user-supplied system call operations

// * * * * * * * * * * * * * * * * * * * * * * * * * * * * * * * * * * * * * //
Create time

Creating block mesh from
    "system/blockMeshDict"
Creating block edges
No non-planar block faces defined
Creating topology blocks
Creating topology patches

Creating block mesh topology

Check topology

	Basic statistics
		Number of internal faces : 0
		Number of boundary faces : 6
		Number of defined boundary faces : 6
		Number of undefined boundary faces : 0
	Checking patch -> block consistency

Creating block offsets
Creating merge list .

Creating polyMesh from blockMesh
Creating patches
Creating cells
Creating points with scale 1
    Block 0 cell size :
        i : 12.214286 .. 12.214286
        j : 12.13324
        k : 12

Writing polyMesh
----------------
Mesh Information
----------------
  boundingBox: (619.08875 72.856201 0) (886.02002 243.8562 84)
  nPoints: 2760
  nCells: 2156
  nFaces: 7028
  nInternalFaces: 5908
----------------
Patches
----------------
  patch 0 (start: 5908 size: 154) name: left
  patch 1 (start: 6062 size: 154) name: right
  patch 2 (start: 6216 size: 98) name: back
  patch 3 (start: 6314 size: 98) name: front
  patch 4 (start: 6412 size: 308) name: bottom
  patch 5 (start: 6720 size: 308) name: top

End

/*---------------------------------------------------------------------------*\
  =========                 |
  \\      /  F ield         | OpenFOAM: The Open Source CFD Toolbox
   \\    /   O peration     | Website:  https://openfoam.org
    \\  /    A nd           | Version:  8
     \\/     M anipulation  |
\*---------------------------------------------------------------------------*/
/*   Windows 32 and 64 bit porting by blueCAPE: http://www.bluecape.com.pt   *\
|  Based on Windows porting (2.0.x v4) by Symscape: http://www.symscape.com   |
\*---------------------------------------------------------------------------*/
Build  : 8-53cd1468e263
Exec   : surfaceFeatures
Date   : Nov 26 2024
Time   : 16:42:57
Host   : "FOAM2"
PID    : 20248
I/O    : uncollated
Case   : C:/MetaFoam_Cases/CR_VS-UMCF_J-DOE08
nProcs : 1
SigFpe : Enabling floating point exception trapping (FOAM_SIGFPE).
fileModificationChecking : Monitoring run-time modified files using timeStampMaster (fileModificationSkew 10)
allowSystemOperations : Allowing user-supplied system call operations

// * * * * * * * * * * * * * * * * * * * * * * * * * * * * * * * * * * * * * //
Create time

Reading surfaceFeaturesDict

Surface            : "Building.stl"


Feature line extraction is only valid on closed manifold surfaces.
Statistics:
Triangles    : 40112
Vertices     : 20262
Bounding Box : (805.91144 132.8562 0) (826.02002 183.8562 12)


Constructing feature set from included angle 150
Selecting edges purely based on geometric tests: no

Initial feature set:
    feature points : 16
    feature edges  : 1112
    of which
        region edges   : 408
        external edges : 704
        internal edges : 0


Final feature set:
points      : 1104
edges       : 1112
boundingBox : (805.91144 132.8562 0) (826.02002 183.8562 12)
point classification :
    convex feature points          :        8
    concave feature points         :        0
    mixed feature points           :        8
    other (non-feature) points     :     1088
edge classification :
    external (convex angle) edges  :      704
    internal (concave angle) edges :        0
    flat region edges              :        0
    open edges                     :      408
    multiply connected edges       :        0

Writing extendedFeatureEdgeMesh to "constant/extendedFeatureEdgeMesh/Building.extendedFeatureEdgeMesh"

Writing extendedEdgeMesh components to "C:/MetaFoam_Cases/CR_VS-UMCF_J-DOE08/constant/extendedFeatureEdgeMesh/Building"

Writing featureEdgeMesh to "constant/triSurface/Building.eMesh"

ExecutionTime = 0.258 s  ClockTime = 0 s

End

/*---------------------------------------------------------------------------*\
  =========                 |
  \\      /  F ield         | OpenFOAM: The Open Source CFD Toolbox
   \\    /   O peration     | Website:  https://openfoam.org
    \\  /    A nd           | Version:  8
     \\/     M anipulation  |
\*---------------------------------------------------------------------------*/
/*   Windows 32 and 64 bit porting by blueCAPE: http://www.bluecape.com.pt   *\
|  Based on Windows porting (2.0.x v4) by Symscape: http://www.symscape.com   |
\*---------------------------------------------------------------------------*/
Build  : 8-53cd1468e263
Exec   : decomposePar -force
Date   : Nov 26 2024
Time   : 16:42:57
Host   : "FOAM2"
PID    : 20800
I/O    : uncollated
Case   : C:/MetaFoam_Cases/CR_VS-UMCF_J-DOE08
nProcs : 1
SigFpe : Enabling floating point exception trapping (FOAM_SIGFPE).
fileModificationChecking : Monitoring run-time modified files using timeStampMaster (fileModificationSkew 10)
allowSystemOperations : Allowing user-supplied system call operations

// * * * * * * * * * * * * * * * * * * * * * * * * * * * * * * * * * * * * * //
Create time

Removing 0 existing processor directories


Decomposing mesh region0

Create mesh

Calculating distribution of cells
Selecting decompositionMethod scotch

Finished decomposition in 0.016 s

Calculating original mesh data

Distributing cells to processors

Distributing faces to processors

Distributing points to processors

Constructing processor meshes

Processor 0
    Number of cells = 179
    Number of faces shared with processor 1 = 28
    Number of faces shared with processor 2 = 29
    Number of faces shared with processor 4 = 12
    Number of faces shared with processor 5 = 16
    Number of processor patches = 4
    Number of processor faces = 85
    Number of boundary faces = 121

Processor 1
    Number of cells = 180
    Number of faces shared with processor 0 = 28
    Number of faces shared with processor 2 = 57
    Number of faces shared with processor 3 = 25
    Number of faces shared with processor 4 = 14
    Number of faces shared with processor 5 = 10
    Number of faces shared with processor 6 = 24
    Number of processor patches = 6
    Number of processor faces = 158
    Number of boundary faces = 52

Processor 2
    Number of cells = 180
    Number of faces shared with processor 0 = 29
    Number of faces shared with processor 1 = 57
    Number of faces shared with processor 6 = 25
    Number of processor patches = 3
    Number of processor faces = 111
    Number of boundary faces = 107

Processor 3
    Number of cells = 179
    Number of faces shared with processor 1 = 25
    Number of faces shared with processor 4 = 36
    Number of faces shared with processor 5 = 21
    Number of faces shared with processor 9 = 49
    Number of processor patches = 4
    Number of processor faces = 131
    Number of boundary faces = 75

Processor 4
    Number of cells = 179
    Number of faces shared with processor 0 = 12
    Number of faces shared with processor 1 = 14
    Number of faces shared with processor 3 = 36
    Number of faces shared with processor 5 = 58
    Number of processor patches = 4
    Number of processor faces = 120
    Number of boundary faces = 104

Processor 5
    Number of cells = 181
    Number of faces shared with processor 0 = 16
    Number of faces shared with processor 1 = 10
    Number of faces shared with processor 3 = 21
    Number of faces shared with processor 4 = 58
    Number of processor patches = 4
    Number of processor faces = 105
    Number of boundary faces = 101

Processor 6
    Number of cells = 179
    Number of faces shared with processor 1 = 24
    Number of faces shared with processor 2 = 25
    Number of faces shared with processor 7 = 31
    Number of faces shared with processor 8 = 26
    Number of faces shared with processor 9 = 26
    Number of faces shared with processor 11 = 2
    Number of processor patches = 6
    Number of processor faces = 134
    Number of boundary faces = 72

Processor 7
    Number of cells = 179
    Number of faces shared with processor 6 = 31
    Number of faces shared with processor 8 = 58
    Number of processor patches = 2
    Number of processor faces = 89
    Number of boundary faces = 135

Processor 8
    Number of cells = 181
    Number of faces shared with processor 6 = 26
    Number of faces shared with processor 7 = 58
    Number of faces shared with processor 10 = 21
    Number of faces shared with processor 11 = 28
    Number of processor patches = 4
    Number of processor faces = 133
    Number of boundary faces = 73

Processor 9
    Number of cells = 179
    Number of faces shared with processor 3 = 49
    Number of faces shared with processor 6 = 26
    Number of faces shared with processor 10 = 25
    Number of faces shared with processor 11 = 32
    Number of processor patches = 4
    Number of processor faces = 132
    Number of boundary faces = 74

Processor 10
    Number of cells = 180
    Number of faces shared with processor 8 = 21
    Number of faces shared with processor 9 = 25
    Number of faces shared with processor 11 = 57
    Number of processor patches = 3
    Number of processor faces = 103
    Number of boundary faces = 103

Processor 11
    Number of cells = 180
    Number of faces shared with processor 6 = 2
    Number of faces shared with processor 8 = 28
    Number of faces shared with processor 9 = 32
    Number of faces shared with processor 10 = 57
    Number of processor patches = 4
    Number of processor faces = 119
    Number of boundary faces = 103

Number of processor faces = 710
Max number of cells = 181 (0.74211503% above average 179.66667)
Max number of processor patches = 6 (50% above average 4)
Max number of faces between processors = 158 (33.521127% above average 118.33333)

Time = 0

Processor 0: field transfer
Processor 1: field transfer
Processor 2: field transfer
Processor 3: field transfer
Processor 4: field transfer
Processor 5: field transfer
Processor 6: field transfer
Processor 7: field transfer
Processor 8: field transfer
Processor 9: field transfer
Processor 10: field transfer
Processor 11: field transfer

End

/*---------------------------------------------------------------------------*\
  =========                 |
  \\      /  F ield         | OpenFOAM: The Open Source CFD Toolbox
   \\    /   O peration     | Website:  https://openfoam.org
    \\  /    A nd           | Version:  8
     \\/     M anipulation  |
\*---------------------------------------------------------------------------*/
/*   Windows 32 and 64 bit porting by blueCAPE: http://www.bluecape.com.pt   *\
|  Based on Windows porting (2.0.x v4) by Symscape: http://www.symscape.com   |
\*---------------------------------------------------------------------------*/
Build  : 8-53cd1468e263
Exec   : snappyHexMesh -overwrite -parallel
Date   : Nov 26 2024
Time   : 16:42:58
Host   : "FOAM2"
PID    : 22008
I/O    : uncollated
Case   : C:/MetaFoam_Cases/CR_VS-UMCF_J-DOE08
nProcs : 12
Slaves : 
11
(
"FOAM2.24316"
"FOAM2.23504"
"FOAM2.21864"
"FOAM2.22600"
"FOAM2.23068"
"FOAM2.23352"
"FOAM2.22816"
"FOAM2.20620"
"FOAM2.18804"
"FOAM2.22456"
"FOAM2.11036"
)

Pstream initialized with:
    floatTransfer      : 0
    nProcsSimpleSum    : 0
    commsType          : nonBlocking
    polling iterations : 0
SigFpe : Enabling floating point exception trapping (FOAM_SIGFPE).
fileModificationChecking : Monitoring run-time modified files using timeStampMaster (fileModificationSkew 10)
allowSystemOperations : Allowing user-supplied system call operations

// * * * * * * * * * * * * * * * * * * * * * * * * * * * * * * * * * * * * * //
Create time

Create mesh for time = 0

Read mesh in = 0.078 s

Overall mesh bounding box  : (619.08875 72.856201 0) (886.02002 243.8562 84)
Relative tolerance         : 1e-06
Absolute matching distance : 0.00032794711

Reading refinement surfaces.
Read refinement surfaces in = 0.266 s

Reading refinement shells.
Refinement level 2 for all cells inside refinementBox
Refinement level according to distance to vegetation
    level 5 for all cells within 1 metre.
    level 4 for all cells within 2 metre.
Refinement level according to distance to Building
    level 4 for all cells within 1 metre.
    level 2 for all cells within 3 metre.
Read refinement shells in = 0 s

Setting refinement level of surface to be consistent with shells.
Checked shell refinement in = 0 s

Reading features.
Read edgeMesh Building.eMesh
    points      : 1104
    edges       : 1112
    boundingBox : (805.91144 132.8562 0) (826.02002 183.8562 12)

Refinement level according to distance to "Building.eMesh" (1104 points, 1112 edges).
    level 4 for all cells within 0 metre.
Read features in = 0.015 s


Determining initial surface intersections
-----------------------------------------

Edge intersection testing:
    Number of edges             : 7028
    Number of edges to retest   : 7028
    Number of intersected edges : 16
Calculated surface intersections in = 0.047 s

Initial mesh : cells:2156  faces:7028  points:2760
Cells per refinement level:
    0	2156

Adding patches for surface regions
----------------------------------

Patch Type                Region                        
----- ----                ------                        
Building:

6     wall                Building                      

Added patches in = 0 s

[7] Selecting decompositionMethod scotch
[0] Selecting decompositionMethod scotch
[10] Selecting decompositionMethod scotch
[5] Selecting decompositionMethod scotch
[4] Selecting decompositionMethod scotch
Layer thickness specified as first layer and expansion ratio.
[2] Selecting decompositionMethod scotch
[6] Selecting decompositionMethod scotch
[9] Selecting decompositionMethod scotch

Refinement phase
----------------

[11] Selecting decompositionMethod scotch
[3] Selecting decompositionMethod scotch
[8] Selecting decompositionMethod scotch
[1] Selecting decompositionMethod scotch
Found point (812.55438 158.3562 16.9) in cell 36 on processor 1

Feature refinement iteration 0
------------------------------

Marked for refinement due to explicit features             : 23 cells.
Determined cells to refine in = 0 s
Selected for feature refinement : 23 cells (out of 2156)
Edge intersection testing:
    Number of edges             : 7607
    Number of edges to retest   : 870
    Number of intersected edges : 52
Refined mesh in = 0.016 s
After refinement feature refinement iteration 0 : cells:2317  faces:7607  points:3031
Cells per refinement level:
    0	2133
    1	184
Balanced mesh in = 0.031 s
After balancing feature refinement iteration 0 : cells:2317  faces:7607  points:3031
Cells per refinement level:
    0	2133
    1	184

Feature refinement iteration 1
------------------------------

Marked for refinement due to explicit features             : 71 cells.
Determined cells to refine in = 0 s
Selected for feature refinement : 91 cells (out of 2317)
Edge intersection testing:
    Number of edges             : 9845
    Number of edges to retest   : 3078
    Number of intersected edges : 187
Refined mesh in = 0 s
After refinement feature refinement iteration 1 : cells:2954  faces:9845  points:4019
Cells per refinement level:
    0	2112
    1	282
    2	560
Balanced mesh in = 0.031 s
After balancing feature refinement iteration 1 : cells:2954  faces:9845  points:4019
Cells per refinement level:
    0	2112
    1	282
    2	560

Feature refinement iteration 2
------------------------------

Marked for refinement due to explicit features             : 139 cells.
Determined cells to refine in = 0.016 s
Selected for feature refinement : 191 cells (out of 2954)
Edge intersection testing:
    Number of edges             : 14567
    Number of edges to retest   : 6978
    Number of intersected edges : 693
Refined mesh in = 0 s
After refinement feature refinement iteration 2 : cells:4291  faces:14567  points:6156
Cells per refinement level:
    0	2108
    1	265
    2	814
    3	1104
Balanced mesh in = 0.047 s
After balancing feature refinement iteration 2 : cells:4291  faces:14567  points:6156
Cells per refinement level:
    0	2108
    1	265
    2	814
    3	1104

Feature refinement iteration 3
------------------------------

Marked for refinement due to explicit features             : 280 cells.
Determined cells to refine in = 0 s
Selected for feature refinement : 411 cells (out of 4291)
Edge intersection testing:
    Number of edges             : 24881
    Number of edges to retest   : 15472
    Number of intersected edges : 1960
Refined mesh in = 0.016 s
After refinement feature refinement iteration 3 : cells:7168  faces:24881  points:10895
Cells per refinement level:
    0	2108
    1	264
    2	682
    3	1954
    4	2160
Balanced mesh in = 0.062 s
After balancing feature refinement iteration 3 : cells:7168  faces:24881  points:10895
Cells per refinement level:
    0	2108
    1	264
    2	682
    3	1954
    4	2160

Feature refinement iteration 4
------------------------------

Marked for refinement due to explicit features             : 25 cells.
Determined cells to refine in = 0.016 s
Selected for feature refinement : 35 cells (out of 7168)
Edge intersection testing:
    Number of edges             : 25694
    Number of edges to retest   : 2314
    Number of intersected edges : 1996
Refined mesh in = 0 s
After refinement feature refinement iteration 4 : cells:7413  faces:25694  points:11216
Cells per refinement level:
    0	2108
    1	264
    2	672
    3	2009
    4	2360
Skipping balancing since max unbalance 0.074554295 is less than allowable 0.1

Feature refinement iteration 5
------------------------------

Marked for refinement due to explicit features             : 2 cells.
Determined cells to refine in = 0.015 s
Selected for feature refinement : 2 cells (out of 7413)
Edge intersection testing:
    Number of edges             : 25739
    Number of edges to retest   : 193
    Number of intersected edges : 1999
Refined mesh in = 0 s
After refinement feature refinement iteration 5 : cells:7427  faces:25739  points:11232
Cells per refinement level:
    0	2108
    1	264
    2	672
    3	2007
    4	2376
Skipping balancing since max unbalance 0.072815534 is less than allowable 0.1

Feature refinement iteration 6
------------------------------

Marked for refinement due to explicit features             : 0 cells.
Determined cells to refine in = 0.016 s
Selected for feature refinement : 0 cells (out of 7427)
Stopping refining since too few cells selected.


Surface refinement iteration 0
------------------------------

Marked for refinement due to surface intersection          : 140 cells.
Marked for refinement due to curvature/regions             : 613 cells.
Determined cells to refine in = 0 s
Selected for refinement : 988 cells (out of 7427)
Edge intersection testing:
    Number of edges             : 49694
    Number of edges to retest   : 35932
    Number of intersected edges : 4703
Refined mesh in = 0.016 s
After refinement surface refinement iteration 0 : cells:14343  faces:49694  points:21620
Cells per refinement level:
    0	2104
    1	278
    2	633
    3	3162
    4	4374
    5	3792
Balanced mesh in = 0.109 s
After balancing surface refinement iteration 0 : cells:14343  faces:49694  points:21620
Cells per refinement level:
    0	2104
    1	278
    2	633
    3	3162
    4	4374
    5	3792

Surface refinement iteration 1
------------------------------

Marked for refinement due to surface intersection          : 0 cells.
Marked for refinement due to curvature/regions             : 5 cells.
Determined cells to refine in = 0 s
Selected for refinement : 5 cells (out of 14343)
Edge intersection testing:
    Number of edges             : 49814
    Number of edges to retest   : 321
    Number of intersected edges : 4724
Refined mesh in = 0.016 s
After refinement surface refinement iteration 1 : cells:14378  faces:49814  points:21668
Cells per refinement level:
    0	2104
    1	278
    2	633
    3	3161
    4	4378
    5	3824
Skipping balancing since max unbalance 0.035893155 is less than allowable 0.1

Surface refinement iteration 2
------------------------------

Marked for refinement due to surface intersection          : 0 cells.
Marked for refinement due to curvature/regions             : 0 cells.
Determined cells to refine in = 0.015 s
Selected for refinement : 0 cells (out of 14378)
Stopping refining since too few cells selected.


Removing mesh beyond surface intersections
------------------------------------------

Found point (812.55438 158.3562 16.9) in global region 1 out of 3 regions.
Keeping all cells in region 1 containing point (812.55438 158.3562 16.9)
Selected for keeping : 12260 cells.
Edge intersection testing:
    Number of edges             : 44600
    Number of edges to retest   : 3576
    Number of intersected edges : 4724

Shell refinement iteration 0
----------------------------

Marked for refinement due to distance to explicit features : 0 cells.
Marked for refinement due to refinement shells             : 878 cells.
Determined cells to refine in = 0.078 s
Selected for internal refinement : 3369 cells (out of 12260)
Edge intersection testing:
    Number of edges             : 120503
    Number of edges to retest   : 113597
    Number of intersected edges : 7822
Refined mesh in = 0.047 s
After refinement shell refinement iteration 0 : cells:35843  faces:120503  points:49119
Cells per refinement level:
    0	2050
    1	574
    2	1334
    3	3609
    4	15010
    5	13266
Balanced mesh in = 0.219 s
After balancing shell refinement iteration 0 : cells:35843  faces:120503  points:49123
Cells per refinement level:
    0	2050
    1	574
    2	1334
    3	3609
    4	15010
    5	13266

Shell refinement iteration 1
----------------------------

Marked for refinement due to distance to explicit features : 0 cells.
Marked for refinement due to refinement shells             : 608 cells.
Determined cells to refine in = 0.016 s
Selected for internal refinement : 1400 cells (out of 35843)
Edge intersection testing:
    Number of edges             : 151799
    Number of edges to retest   : 71671
    Number of intersected edges : 7934
Refined mesh in = 0.046 s
After refinement shell refinement iteration 1 : cells:45643  faces:151799  points:60940
Cells per refinement level:
    0	2044
    1	620
    2	1316
    3	3603
    4	16154
    5	21906
Balanced mesh in = 0.266 s
After balancing shell refinement iteration 1 : cells:45643  faces:151799  points:60941
Cells per refinement level:
    0	2044
    1	620
    2	1316
    3	3603
    4	16154
    5	21906

Shell refinement iteration 2
----------------------------

Marked for refinement due to distance to explicit features : 0 cells.
Marked for refinement due to refinement shells             : 512 cells.
Determined cells to refine in = 0.016 s
Selected for internal refinement : 703 cells (out of 45643)
Edge intersection testing:
    Number of edges             : 167894
    Number of edges to retest   : 32219
    Number of intersected edges : 7934
Refined mesh in = 0.046 s
After refinement shell refinement iteration 2 : cells:50564  faces:167894  points:67264
Cells per refinement level:
    0	2044
    1	610
    2	1327
    3	3975
    4	17150
    5	25458
Balanced mesh in = 0.282 s
After balancing shell refinement iteration 2 : cells:50564  faces:167894  points:67268
Cells per refinement level:
    0	2044
    1	610
    2	1327
    3	3975
    4	17150
    5	25458

Shell refinement iteration 3
----------------------------

Marked for refinement due to distance to explicit features : 0 cells.
Marked for refinement due to refinement shells             : 207 cells.
Determined cells to refine in = 0.015 s
Selected for internal refinement : 339 cells (out of 50564)
Edge intersection testing:
    Number of edges             : 175667
    Number of edges to retest   : 16771
    Number of intersected edges : 7934
Refined mesh in = 0.047 s
After refinement shell refinement iteration 3 : cells:52937  faces:175667  points:70335
Cells per refinement level:
    0	2044
    1	592
    2	1440
    3	4129
    4	17706
    5	27026
Balanced mesh in = 0.317 s
After balancing shell refinement iteration 3 : cells:52937  faces:175667  points:70346
Cells per refinement level:
    0	2044
    1	592
    2	1440
    3	4129
    4	17706
    5	27026

Shell refinement iteration 4
----------------------------

Marked for refinement due to distance to explicit features : 0 cells.
Marked for refinement due to refinement shells             : 1 cells.
Determined cells to refine in = 0.015 s
Selected for internal refinement : 70 cells (out of 52937)
Edge intersection testing:
    Number of edges             : 177299
    Number of edges to retest   : 5353
    Number of intersected edges : 7934
Refined mesh in = 0.032 s
After refinement shell refinement iteration 4 : cells:53427  faces:177299  points:71006
Cells per refinement level:
    0	2040
    1	618
    2	1472
    3	4214
    4	18049
    5	27034
Skipping balancing since max unbalance 0.044249775 is less than allowable 0.1

Shell refinement iteration 5
----------------------------

Marked for refinement due to distance to explicit features : 0 cells.
Marked for refinement due to refinement shells             : 0 cells.
Determined cells to refine in = 0.016 s
Selected for internal refinement : 24 cells (out of 53427)
Edge intersection testing:
    Number of edges             : 177839
    Number of edges to retest   : 2109
    Number of intersected edges : 7934
Refined mesh in = 0.047 s
After refinement shell refinement iteration 5 : cells:53595  faces:177839  points:71212
Cells per refinement level:
    0	2036
    1	646
    2	1490
    3	4324
    4	18065
    5	27034
Skipping balancing since max unbalance 0.05351545 is less than allowable 0.1

Shell refinement iteration 6
----------------------------

Marked for refinement due to distance to explicit features : 0 cells.
Marked for refinement due to refinement shells             : 0 cells.
Determined cells to refine in = 0.016 s
Selected for internal refinement : 2 cells (out of 53595)
Edge intersection testing:
    Number of edges             : 177884
    Number of edges to retest   : 160
    Number of intersected edges : 7934
Refined mesh in = 0.032 s
After refinement shell refinement iteration 6 : cells:53609  faces:177884  points:71228
Cells per refinement level:
    0	2034
    1	662
    2	1490
    3	4324
    4	18065
    5	27034
Skipping balancing since max unbalance 0.053279606 is less than allowable 0.1

Shell refinement iteration 7
----------------------------

Marked for refinement due to distance to explicit features : 0 cells.
Marked for refinement due to refinement shells             : 0 cells.
Determined cells to refine in = 0.026 s
Selected for internal refinement : 0 cells (out of 53609)
Stopping refining since too few cells selected.


Dangling coarse cells refinement iteration 0
--------------------------------------------

Determined cells to refine in = 0 s
Selected for refinement : 0 cells (out of 53609)
Stopping refining since too few cells selected.


Dangling coarse cells refinement iteration 0
--------------------------------------------

Determined cells to refine in = 0 s
Selected for refinement : 0 cells (out of 53609)
Stopping refining since too few cells selected.


Splitting mesh at surface intersections
---------------------------------------

Introducing baffles for 7934 faces that are intersected by the surface.

Edge intersection testing:
    Number of edges             : 185818
    Number of edges to retest   : 60325
    Number of intersected edges : 15208
Created baffles in = 0.037 s


After introducing baffles : cells:53609  faces:185818  points:71228
Cells per refinement level:
    0	2034
    1	662
    2	1490
    3	4324
    4	18065
    5	27034

Introducing baffles to block off problem cells
----------------------------------------------

markFacesOnProblemCells : marked 5935 additional internal faces to be converted into baffles.
Analyzed problem cells in = 0.032 s


Introducing baffles to delete problem cells.

Edge intersection testing:
    Number of edges             : 191753
    Number of edges to retest   : 23626
    Number of intersected edges : 15208
Created baffles in = 0.032 s


After introducing baffles : cells:53609  faces:191753  points:71340
Cells per refinement level:
    0	2034
    1	662
    2	1490
    3	4324
    4	18065
    5	27034

Remove unreachable sections of mesh
-----------------------------------

Keeping all cells in region 0 containing point (812.55438 158.3562 16.9)
Selected for keeping : 42732 cells.
Edge intersection testing:
    Number of edges             : 144889
    Number of edges to retest   : 0
    Number of intersected edges : 7446
Split mesh in = 0.079 s


After subsetting : cells:42732  faces:144889  points:60133
Cells per refinement level:
    0	2034
    1	662
    2	1490
    3	4324
    4	13610
    5	20612

Handling cells with snap problems
---------------------------------

Introducing baffles for 7446 faces that are intersected by the surface.

Edge intersection testing:
    Number of edges             : 144889
    Number of edges to retest   : 31718
    Number of intersected edges : 7446
Created baffles in = 0.031 s


After introducing baffles : cells:42732  faces:144889  points:60133
Cells per refinement level:
    0	2034
    1	662
    2	1490
    3	4324
    4	13610
    5	20612

Introducing baffles to block off problem cells
----------------------------------------------

markFacesOnProblemCells : marked 0 additional internal faces to be converted into baffles.
Analyzed problem cells in = 0.016 s


Introducing baffles to delete problem cells.

Edge intersection testing:
    Number of edges             : 144889
    Number of edges to retest   : 0
    Number of intersected edges : 7446
Created baffles in = 0.023 s


After introducing baffles : cells:42732  faces:144889  points:60133
Cells per refinement level:
    0	2034
    1	662
    2	1490
    3	4324
    4	13610
    5	20612

Remove unreachable sections of mesh
-----------------------------------

Keeping all cells in region 0 containing point (812.55438 158.3562 16.9)
Selected for keeping : 42732 cells.
Edge intersection testing:
    Number of edges             : 144889
    Number of edges to retest   : 0
    Number of intersected edges : 7446
Split mesh in = 0.062 s


After subsetting : cells:42732  faces:144889  points:60133
Cells per refinement level:
    0	2034
    1	662
    2	1490
    3	4324
    4	13610
    5	20612

Merge free-standing baffles
---------------------------

freeStandingBaffles : detected 0 free-standing baffles out of 0

Detected free-standing baffles : 0
Merged free-standing baffles in = 0.01 s


dupNonManifoldPoints : Found : 1 non-manifold points (out of 64784)
Edge intersection testing:
    Number of edges             : 144889
    Number of edges to retest   : 0
    Number of intersected edges : 7446
Detected unsplittable baffles : 0

Merge refined boundary faces
----------------------------

Merging 100 sets of faces.

Edge intersection testing:
    Number of edges             : 144785
    Number of edges to retest   : 683
    Number of intersected edges : 7342

Undo iteration 0
----------------
Checking faces in error :
    non-orthogonality > 65  degrees                        : 0
    faces with face pyramid volume < 1e-13                 : 0
    faces with concavity > 80  degrees                     : 0
    faces with skewness > 4   (internal) or 4   (boundary) : 0
    faces with interpolation weights (0..1)  < 0.05        : 0
    faces with volume ratio of neighbour cells < 0.01      : 0
    faces on cells with determinant < 0.001                : 0

Merging all points on surface that
- are used by only two boundary faces and
- make an angle with a cosine of more than 0.70710678.

Removing 101 straight edge points ...

Edge intersection testing:
    Number of edges             : 144785
    Number of edges to retest   : 692
    Number of intersected edges : 7342

Undo iteration 0
----------------
Checking faces in error :
    non-orthogonality > 65  degrees                        : 0
    faces with face pyramid volume < 1e-13                 : 0
    faces with concavity > 80  degrees                     : 0
    faces with skewness > 4   (internal) or 4   (boundary) : 0
    faces with interpolation weights (0..1)  < 0.05        : 0
    faces with volume ratio of neighbour cells < 0.01      : 0
    faces on cells with determinant < 0.001                : 0

Doing final balancing
---------------------

Found 0 zoned faces to keep together.
Found 0 separated coupled faces to keep together.
Refined mesh : cells:42732  faces:144785  points:60031
Cells per refinement level:
    0	2034
    1	662
    2	1490
    3	4324
    4	13610
    5	20612
Writing mesh to time constant
Wrote mesh in = 0.537 s.
Mesh refined in = 2.86 s.

Morphing phase
--------------


Snapping to features in 20 iterations ...
Constructing mesh displacer ...
Using mesh parameters 
{
    maxNonOrtho     65;
    maxBoundarySkewness 4;
    maxInternalSkewness 4;
    maxConcave      80;
    minVol          1e-13;
    minTetQuality   -1e+30;
    minArea         -1;
    minTwist        -1e+30;
    minDeterminant  0.001;
    minFaceWeight   0.05;
    minVolRatio     0.01;
    minTriangleTwist -1;
    nSmoothScale    4;
    errorReduction  0.75;
    relaxed
    {
        maxNonOrtho     75;
    }
}


Checking initial mesh ...
Checking faces in error :
    non-orthogonality > 65  degrees                        : 0
    faces with face pyramid volume < 1e-13                 : 0
    faces with concavity > 80  degrees                     : 0
    faces with skewness > 4   (internal) or 4   (boundary) : 0
    faces with interpolation weights (0..1)  < 0.05        : 0
    faces with volume ratio of neighbour cells < 0.01      : 0
    faces on cells with determinant < 0.001                : 0
Detected 0 illegal faces (concave, zero area or negative cell pyramid volume)
Checked initial mesh in = 0.015 s


Smoothing patch points ...
Smoothing iteration 0
Found 2 non-manifold point(s).

Scaling iteration 0
Moving mesh using displacement scaling : min:1  max:1
Checking faces in error :
    non-orthogonality > 65  degrees                        : 0
    faces with face pyramid volume < 1e-13                 : 0
    faces with concavity > 80  degrees                     : 0
    faces with skewness > 4   (internal) or 4   (boundary) : 0
    faces with interpolation weights (0..1)  < 0.05        : 0
    faces with volume ratio of neighbour cells < 0.01      : 0
    faces on cells with determinant < 0.001                : 0
Successfully moved mesh

Smoothing iteration 1
Found 0 non-manifold point(s).

Scaling iteration 0
Moving mesh using displacement scaling : min:1  max:1
Checking faces in error :
    non-orthogonality > 65  degrees                        : 0
    faces with face pyramid volume < 1e-13                 : 0
    faces with concavity > 80  degrees                     : 0
    faces with skewness > 4   (internal) or 4   (boundary) : 0
    faces with interpolation weights (0..1)  < 0.05        : 0
    faces with volume ratio of neighbour cells < 0.01      : 0
    faces on cells with determinant < 0.001                : 0
Successfully moved mesh

Smoothing iteration 2
Found 0 non-manifold point(s).

Scaling iteration 0
Moving mesh using displacement scaling : min:1  max:1
Checking faces in error :
    non-orthogonality > 65  degrees                        : 0
    faces with face pyramid volume < 1e-13                 : 0
    faces with concavity > 80  degrees                     : 0
    faces with skewness > 4   (internal) or 4   (boundary) : 0
    faces with interpolation weights (0..1)  < 0.05        : 0
    faces with volume ratio of neighbour cells < 0.01      : 0
    faces on cells with determinant < 0.001                : 0
Successfully moved mesh

Patch points smoothed in = 0.047 s



Morph iteration 0
-----------------
Calculating patchDisplacement as distance to nearest surface point ...
Wanted displacement : average:0.13007411 min:2.1744236e-05 max:0.38420432
Calculated surface displacement in = 0 s


Detecting near surfaces ...
Overriding nearest with intersection of close gaps at 0 out of 8622 points.
Overriding displacement on features :
   implicit features    : false
   explicit features    : true
   multi-patch features : false

Detected 0 baffle edges out of 16392 edges.
Initially selected 859 points out of 8622 for reverse attraction.
Selected 2281 points out of 8622 for reverse attraction.
Stringing feature edges : changed 2 points
Stringing feature edges : changed 0 points
Attraction:
     linear   : max:(0 -0.38420432 0) avg:(-0.0055353285 -0.0018940049 -0.009805818)
     feature  : max:(-0.24528874 -0.23717678 0.13872135) avg:(-0.0044561516 9.8484362e-05 0.0044843031)
Feature analysis : total master points:8164 attraction to :
    feature point   : 18
    feature edge    : 800
    nearest surface : 0
    rest            : 7346

--> FOAM Warning : Displacement (-0.0017478718 0.00014842797 -2.9018442e-07) at mesh point 1249 coord (805.96782 182.78858 0.37497212) points through the surrounding patch faces
Smoothing displacement ...
Iteration 0
Iteration 10
Iteration 20
Iteration 30
Iteration 40
Iteration 50
Iteration 60
Iteration 70
Displacement smoothed in = 0.063 s


Moving mesh ...

Iteration 0
Moving mesh using displacement scaling : min:1  max:1
Checking faces in error :
    non-orthogonality > 65  degrees                        : 0
    faces with face pyramid volume < 1e-13                 : 0
    faces with concavity > 80  degrees                     : 0
    faces with skewness > 4   (internal) or 4   (boundary) : 0
    faces with interpolation weights (0..1)  < 0.05        : 0
    faces with volume ratio of neighbour cells < 0.01      : 0
    faces on cells with determinant < 0.001                : 0
Successfully moved mesh
Moved mesh in = 0.015 s



Morph iteration 1
-----------------
Calculating patchDisplacement as distance to nearest surface point ...
Wanted displacement : average:0.12518276 min:2.0654095e-05 max:0.36876615
Calculated surface displacement in = 0 s


Detecting near surfaces ...
Overriding nearest with intersection of close gaps at 0 out of 8622 points.
Overriding displacement on features :
   implicit features    : false
   explicit features    : true
   multi-patch features : false

Detected 0 baffle edges out of 16392 edges.
Initially selected 861 points out of 8622 for reverse attraction.
Selected 2283 points out of 8622 for reverse attraction.
Stringing feature edges : changed 4 points
Stringing feature edges : changed 0 points
Attraction:
     linear   : max:(0 -0.36876615 0) avg:(-0.005512142 -0.0017964001 -0.0095456225)
     feature  : max:(-0.24467552 -0.23658384 0.13178528) avg:(-0.0044485544 9.3555887e-05 0.0043551399)
Feature analysis : total master points:8164 attraction to :
    feature point   : 20
    feature edge    : 798
    nearest surface : 0
    rest            : 7346

--> FOAM Warning : Displacement (-0.0035548348 0.00027850522 -1.1978697e-06) at mesh point 1249 coord (805.96607 182.78873 0.37497183) points through the surrounding patch faces
Smoothing displacement ...
Iteration 0
Iteration 10
Iteration 20
Iteration 30
Iteration 40
Iteration 50
Iteration 60
Iteration 70
Displacement smoothed in = 0.063 s


Moving mesh ...

Iteration 0
Moving mesh using displacement scaling : min:1  max:1
Checking faces in error :
    non-orthogonality > 65  degrees                        : 0
    faces with face pyramid volume < 1e-13                 : 0
    faces with concavity > 80  degrees                     : 0
    faces with skewness > 4   (internal) or 4   (boundary) : 0
    faces with interpolation weights (0..1)  < 0.05        : 0
    faces with volume ratio of neighbour cells < 0.01      : 0
    faces on cells with determinant < 0.001                : 0
Successfully moved mesh
Moved mesh in = 0.015 s



Morph iteration 2
-----------------
Calculating patchDisplacement as distance to nearest surface point ...
Wanted displacement : average:0.1156352 min:1.8576967e-05 max:0.3397393
Calculated surface displacement in = 0 s


Detecting near surfaces ...
Overriding nearest with intersection of close gaps at 0 out of 8622 points.
Overriding displacement on features :
   implicit features    : false
   explicit features    : true
   multi-patch features : false

Detected 0 baffle edges out of 16392 edges.
Initially selected 861 points out of 8622 for reverse attraction.
Selected 2283 points out of 8622 for reverse attraction.
Stringing feature edges : changed 4 points
Stringing feature edges : changed 0 points
Attraction:
     linear   : max:(0 -0.3397393 0) avg:(-0.0054088734 -0.001611284 -0.0090307259)
     feature  : max:(-0.24222876 -0.234218 0.11860675) avg:(-0.0044592134 8.4192494e-05 0.004124734)
Feature analysis : total master points:8164 attraction to :
    feature point   : 20
    feature edge    : 798
    nearest surface : 0
    rest            : 7346

--> FOAM Warning : Displacement (-0.0052102429 0.00035685573 -2.5528726e-06) at mesh point 1249 coord (805.96251 182.78901 0.37497063) points through the surrounding patch faces
Smoothing displacement ...
Iteration 0
Iteration 10
Iteration 20
Iteration 30
Iteration 40
Iteration 50
Iteration 60
Iteration 70
Displacement smoothed in = 0.063 s


Moving mesh ...

Iteration 0
Moving mesh using displacement scaling : min:1  max:1
Checking faces in error :
    non-orthogonality > 65  degrees                        : 0
    faces with face pyramid volume < 1e-13                 : 0
    faces with concavity > 80  degrees                     : 0
    faces with skewness > 4   (internal) or 4   (boundary) : 0
    faces with interpolation weights (0..1)  < 0.05        : 0
    faces with volume ratio of neighbour cells < 0.01      : 0
    faces on cells with determinant < 0.001                : 0
Successfully moved mesh
Moved mesh in = 0.016 s



Morph iteration 3
-----------------
Calculating patchDisplacement as distance to nearest surface point ...
Wanted displacement : average:0.10226427 min:1.5764054e-05 max:0.30521985
Calculated surface displacement in = 0 s


Detecting near surfaces ...
Overriding nearest with intersection of close gaps at 0 out of 8622 points.
Overriding displacement on features :
   implicit features    : false
   explicit features    : true
   multi-patch features : false

Detected 0 baffle edges out of 16392 edges.
Initially selected 861 points out of 8622 for reverse attraction.
Selected 2283 points out of 8622 for reverse attraction.
Stringing feature edges : changed 4 points
Stringing feature edges : changed 0 points
Attraction:
     linear   : max:(0 0.30521985 0) avg:(-0.0051637029 -0.0013618629 -0.0082846014)
     feature  : max:(-0.23677862 -0.22894809 0.10081574) avg:(-0.0044291343 7.1552607e-05 0.003793773)
Feature analysis : total master points:8164 attraction to :
    feature point   : 20
    feature edge    : 798
    nearest surface : 0
    rest            : 7346

--> FOAM Warning : Displacement (-0.0065203282 0.00035757423 -3.1712144e-06) at mesh point 1249 coord (805.9573 182.78936 0.37496808) points through the surrounding patch faces
Smoothing displacement ...
Iteration 0
Iteration 10
Iteration 20
Iteration 30
Iteration 40
Iteration 50
Iteration 60
Iteration 70
Displacement smoothed in = 0.062 s


Moving mesh ...

Iteration 0
Moving mesh using displacement scaling : min:1  max:1
Checking faces in error :
    non-orthogonality > 65  degrees                        : 0
    faces with face pyramid volume < 1e-13                 : 0
    faces with concavity > 80  degrees                     : 0
    faces with skewness > 4   (internal) or 4   (boundary) : 0
    faces with interpolation weights (0..1)  < 0.05        : 0
    faces with volume ratio of neighbour cells < 0.01      : 0
    faces on cells with determinant < 0.001                : 0
Successfully moved mesh
Moved mesh in = 0 s



Morph iteration 4
-----------------
Calculating patchDisplacement as distance to nearest surface point ...
Wanted displacement : average:0.086333303 min:1.2564369e-05 max:0.2630205
Calculated surface displacement in = 0 s


Detecting near surfaces ...
Overriding nearest with intersection of close gaps at 0 out of 8622 points.
Overriding displacement on features :
   implicit features    : false
   explicit features    : true
   multi-patch features : false

Detected 0 baffle edges out of 16392 edges.
Initially selected 859 points out of 8622 for reverse attraction.
Selected 2281 points out of 8622 for reverse attraction.
Stringing feature edges : changed 2 points
Stringing feature edges : changed 0 points
Attraction:
     linear   : max:(0 0.2630205 0) avg:(-0.0047250692 -0.0010799294 -0.0073498536)
     feature  : max:(-0.22730747 -0.21979017 0.080652591) avg:(-0.0043529211 5.7228522e-05 0.0033966494)
Feature analysis : total master points:8164 attraction to :
    feature point   : 18
    feature edge    : 800
    nearest surface : 0
    rest            : 7346

--> FOAM Warning : Displacement (-0.0073362752 0.00027321524 -1.294254e-06) at mesh point 1249 coord (805.95078 182.78972 0.37496491) points through the surrounding patch faces
Smoothing displacement ...
Iteration 0
Iteration 10
Iteration 20
Iteration 30
Iteration 40
Iteration 50
Iteration 60
Iteration 70
Displacement smoothed in = 0.063 s


Moving mesh ...

Iteration 0
Moving mesh using displacement scaling : min:1  max:1
Checking faces in error :
    non-orthogonality > 65  degrees                        : 0
    faces with face pyramid volume < 1e-13                 : 0
    faces with concavity > 80  degrees                     : 0
    faces with skewness > 4   (internal) or 4   (boundary) : 0
    faces with interpolation weights (0..1)  < 0.05        : 0
    faces with volume ratio of neighbour cells < 0.01      : 0
    faces on cells with determinant < 0.001                : 0
Successfully moved mesh
Moved mesh in = 0.015 s



Morph iteration 5
-----------------
Calculating patchDisplacement as distance to nearest surface point ...
Wanted displacement : average:0.06934539 min:9.3500342e-06 max:0.21691223
Calculated surface displacement in = 0 s


Detecting near surfaces ...
Overriding nearest with intersection of close gaps at 0 out of 8622 points.
Overriding displacement on features :
   implicit features    : false
   explicit features    : true
   multi-patch features : false

Detected 0 baffle edges out of 16392 edges.
Initially selected 859 points out of 8622 for reverse attraction.
Selected 2281 points out of 8622 for reverse attraction.
Stringing feature edges : changed 2 points
Stringing feature edges : changed 0 points
Attraction:
     linear   : max:(0 -0.21691223 0) avg:(-0.0040686251 -0.00079916727 -0.0062876176)
     feature  : max:(-0.21310075 -0.20605328 0.060489443) avg:(-0.0041500808 4.2905614e-05 0.0029444719)
Feature analysis : total master points:8164 attraction to :
    feature point   : 18
    feature edge    : 800
    nearest surface : 0
    rest            : 7346

--> FOAM Warning : Displacement (-0.0075739216 0.00012006375 3.4115389e-06) at mesh point 1249 coord (805.94345 182.78999 0.37496362) points through the surrounding patch faces
Smoothing displacement ...
Iteration 0
Iteration 10
Iteration 20
Iteration 30
Iteration 40
Iteration 50
Iteration 60
Iteration 70
Displacement smoothed in = 0.063 s


Moving mesh ...

Iteration 0
Moving mesh using displacement scaling : min:1  max:1
Checking faces in error :
    non-orthogonality > 65  degrees                        : 0
    faces with face pyramid volume < 1e-13                 : 0
    faces with concavity > 80  degrees                     : 0
    faces with skewness > 4   (internal) or 4   (boundary) : 0
    faces with interpolation weights (0..1)  < 0.05        : 0
    faces with volume ratio of neighbour cells < 0.01      : 0
    faces on cells with determinant < 0.001                : 0
Successfully moved mesh
Moved mesh in = 0.015 s



Morph iteration 6
-----------------
Calculating patchDisplacement as distance to nearest surface point ...
Wanted displacement : average:0.05286548 min:2.9626386e-07 max:0.17078571
Calculated surface displacement in = 0 s


Detecting near surfaces ...
Overriding nearest with intersection of close gaps at 0 out of 8622 points.
Overriding displacement on features :
   implicit features    : false
   explicit features    : true
   multi-patch features : false

Detected 0 baffle edges out of 16392 edges.
Initially selected 857 points out of 8622 for reverse attraction.
Selected 2279 points out of 8622 for reverse attraction.
Stringing feature edges : changed 0 points
Attraction:
     linear   : max:(0 -0.17078571 0) avg:(-0.0032155724 -0.00054823862 -0.0051694513)
     feature  : max:(-0.19392169 -0.18750849 0.04234261) avg:(-0.0038685835 3.0016545e-05 0.0024829827)
Feature analysis : total master points:8164 attraction to :
    feature point   : 16
    feature edge    : 802
    nearest surface : 0
    rest            : 7346

--> FOAM Warning : Displacement (-0.0072239269 -6.6490034e-05 8.6299318e-06) at mesh point 1249 coord (805.93587 182.79011 0.37496703) points through the surrounding patch faces
Smoothing displacement ...
Iteration 0
Iteration 10
Iteration 20
Iteration 30
Iteration 40
Iteration 50
Iteration 60
Iteration 70
Displacement smoothed in = 0.063 s


Moving mesh ...

Iteration 0
Moving mesh using displacement scaling : min:1  max:1
Checking faces in error :
    non-orthogonality > 65  degrees                        : 0
    faces with face pyramid volume < 1e-13                 : 0
    faces with concavity > 80  degrees                     : 0
    faces with skewness > 4   (internal) or 4   (boundary) : 0
    faces with interpolation weights (0..1)  < 0.05        : 0
    faces with volume ratio of neighbour cells < 0.01      : 0
    faces on cells with determinant < 0.001                : 0
Successfully moved mesh
Moved mesh in = 0.015 s



Morph iteration 7
-----------------
Calculating patchDisplacement as distance to nearest surface point ...
Wanted displacement : average:0.038230644 min:4.0421562e-06 max:0.13197795
Calculated surface displacement in = 0 s


Detecting near surfaces ...
Overriding nearest with intersection of close gaps at 0 out of 8622 points.
Overriding displacement on features :
   implicit features    : false
   explicit features    : true
   multi-patch features : false

Detected 0 baffle edges out of 16392 edges.
Initially selected 857 points out of 8622 for reverse attraction.
Selected 2279 points out of 8622 for reverse attraction.
Stringing feature edges : changed 0 points
Attraction:
     linear   : max:(0 -0.13197795 0) avg:(-0.0022351876 -0.00034570985 -0.0040716588)
     feature  : max:(-0.17016628 -0.1645387 0.027522697) avg:(-0.0034395153 1.9492649e-05 0.0020245899)
Feature analysis : total master points:8164 attraction to :
    feature point   : 16
    feature edge    : 802
    nearest surface : 0
    rest            : 7346

--> FOAM Warning : Displacement (-0.0063528681 -0.00024492562 1.1071259e-05) at mesh point 1249 coord (805.92865 182.79005 0.37497566) points through the surrounding patch faces
Smoothing displacement ...
Iteration 0
Iteration 10
Iteration 20
Iteration 30
Iteration 40
Iteration 50
Iteration 60
Iteration 70
Displacement smoothed in = 0.063 s


Moving mesh ...

Iteration 0
Moving mesh using displacement scaling : min:1  max:1
Checking faces in error :
    non-orthogonality > 65  degrees                        : 0
    faces with face pyramid volume < 1e-13                 : 0
    faces with concavity > 80  degrees                     : 0
    faces with skewness > 4   (internal) or 4   (boundary) : 0
    faces with interpolation weights (0..1)  < 0.05        : 0
    faces with volume ratio of neighbour cells < 0.01      : 0
    faces on cells with determinant < 0.001                : 0
Successfully moved mesh
Moved mesh in = 0 s



Morph iteration 8
-----------------
Calculating patchDisplacement as distance to nearest surface point ...
Wanted displacement : average:0.025909163 min:2.2377937e-06 max:0.099588542
Calculated surface displacement in = 0.016 s


Detecting near surfaces ...
Overriding nearest with intersection of close gaps at 0 out of 8622 points.
Overriding displacement on features :
   implicit features    : false
   explicit features    : true
   multi-patch features : false

Detected 0 baffle edges out of 16392 edges.
Initially selected 857 points out of 8622 for reverse attraction.
Selected 2279 points out of 8622 for reverse attraction.
Stringing feature edges : changed 0 points
Attraction:
     linear   : max:(0 -0.099588542 0) avg:(-0.0012367337 -0.00019817107 -0.0030602062)
     feature  : max:(-0.14293967 -0.13821251 0.016513618) avg:(-0.0029199349 1.1677293e-05 0.0015948996)
Feature analysis : total master points:8164 attraction to :
    feature point   : 16
    feature edge    : 802
    nearest surface : 0
    rest            : 7346

--> FOAM Warning : Displacement (-0.0050964795 -0.00038183291 9.631658e-06) at mesh point 1249 coord (805.9223 182.7898 0.37498673) points through the surrounding patch faces
Smoothing displacement ...
Iteration 0
Iteration 10
Iteration 20
Iteration 30
Iteration 40
Iteration 50
Iteration 60
Iteration 70
Displacement smoothed in = 0.062 s


Moving mesh ...

Iteration 0
Moving mesh using displacement scaling : min:1  max:1
Checking faces in error :
    non-orthogonality > 65  degrees                        : 0
    faces with face pyramid volume < 1e-13                 : 0
    faces with concavity > 80  degrees                     : 0
    faces with skewness > 4   (internal) or 4   (boundary) : 0
    faces with interpolation weights (0..1)  < 0.05        : 0
    faces with volume ratio of neighbour cells < 0.01      : 0
    faces on cells with determinant < 0.001                : 0
Successfully moved mesh
Moved mesh in = 0 s



Morph iteration 9
-----------------
Calculating patchDisplacement as distance to nearest surface point ...
Wanted displacement : average:0.016638518 min:9.9348185e-07 max:0.071226256
Calculated surface displacement in = 0 s


Detecting near surfaces ...
Overriding nearest with intersection of close gaps at 0 out of 8622 points.
Overriding displacement on features :
   implicit features    : false
   explicit features    : true
   multi-patch features : false

Detected 0 baffle edges out of 16392 edges.
Initially selected 857 points out of 8622 for reverse attraction.
Selected 2279 points out of 8622 for reverse attraction.
Stringing feature edges : changed 0 points
Attraction:
     linear   : max:(0.071226256 0 0) avg:(-0.00034599842 -0.00010170787 -0.0021843126)
     feature  : max:(-0.11399439 -0.11022447 0.0090824899) avg:(-0.0023476688 6.404593e-06 0.0012064959)
Feature analysis : total master points:8164 attraction to :
    feature point   : 16
    feature edge    : 802
    nearest surface : 0
    rest            : 7346

--> FOAM Warning : Displacement (-0.0036448047 -0.00045989269 6.3364414e-06) at mesh point 1249 coord (805.9172 182.78942 0.37499636) points through the surrounding patch faces
Smoothing displacement ...
Iteration 0
Iteration 10
Iteration 20
Iteration 30
Iteration 40
Iteration 50
Iteration 60
Iteration 70
Displacement smoothed in = 0.063 s


Moving mesh ...

Iteration 0
Moving mesh using displacement scaling : min:1  max:1
Checking faces in error :
    non-orthogonality > 65  degrees                        : 0
    faces with face pyramid volume < 1e-13                 : 0
    faces with concavity > 80  degrees                     : 0
    faces with skewness > 4   (internal) or 4   (boundary) : 0
    faces with interpolation weights (0..1)  < 0.05        : 0
    faces with volume ratio of neighbour cells < 0.01      : 0
    faces on cells with determinant < 0.001                : 0
Successfully moved mesh
Moved mesh in = 0.015 s



Morph iteration 10
-----------------
Calculating patchDisplacement as distance to nearest surface point ...
Wanted displacement : average:0.010678289 min:2.0377217e-07 max:0.048123317
Calculated surface displacement in = 0 s


Detecting near surfaces ...
Overriding nearest with intersection of close gaps at 0 out of 8622 points.
Overriding displacement on features :
   implicit features    : false
   explicit features    : true
   multi-patch features : false

Detected 0 baffle edges out of 16392 edges.
Initially selected 857 points out of 8622 for reverse attraction.
Selected 2279 points out of 8622 for reverse attraction.
Stringing feature edges : changed 0 points
Attraction:
     linear   : max:(0.048123317 0 0) avg:(0.00032732595 -4.5710807e-05 -0.0014699556)
     feature  : max:(-0.085495793 -0.082668356 0.004541245) avg:(-0.0017713174 3.1852173e-06 0.00086851836)
Feature analysis : total master points:8164 attraction to :
    feature point   : 16
    feature edge    : 802
    nearest surface : 0
    rest            : 7346

--> FOAM Warning : Displacement (-0.0022154992 -0.00047717268 3.924266e-06) at mesh point 1249 coord (805.91356 182.78896 0.3750027) points through the surrounding patch faces
Smoothing displacement ...
Iteration 0
Iteration 10
Iteration 20
Iteration 30
Iteration 40
Iteration 50
Iteration 60
Iteration 70
Displacement smoothed in = 0.063 s


Moving mesh ...

Iteration 0
Moving mesh using displacement scaling : min:1  max:1
Checking faces in error :
    non-orthogonality > 65  degrees                        : 0
    faces with face pyramid volume < 1e-13                 : 0
    faces with concavity > 80  degrees                     : 0
    faces with skewness > 4   (internal) or 4   (boundary) : 0
    faces with interpolation weights (0..1)  < 0.05        : 0
    faces with volume ratio of neighbour cells < 0.01      : 0
    faces on cells with determinant < 0.001                : 0
Successfully moved mesh
Moved mesh in = 0.015 s



Morph iteration 11
-----------------
Calculating patchDisplacement as distance to nearest surface point ...
Wanted displacement : average:0.0068028676 min:2.6279471e-07 max:0.031371874
Calculated surface displacement in = 0 s


Detecting near surfaces ...
Overriding nearest with intersection of close gaps at 0 out of 8622 points.
Overriding displacement on features :
   implicit features    : false
   explicit features    : true
   multi-patch features : false

Detected 0 baffle edges out of 16392 edges.
Initially selected 857 points out of 8622 for reverse attraction.
Selected 2279 points out of 8622 for reverse attraction.
Stringing feature edges : changed 0 points
Attraction:
     linear   : max:(0.031371874 0 0) avg:(0.00072116569 -1.7356212e-05 -0.00092129753)
     feature  : max:(-0.059633316 -0.057661178 0.0020435602) avg:(-0.0012407224 1.4174336e-06 0.00058779653)
Feature analysis : total master points:8164 attraction to :
    feature point   : 16
    feature edge    : 802
    nearest surface : 0
    rest            : 7346

--> FOAM Warning : Displacement (-0.0010118459 -0.00044159582 3.1466333e-06) at mesh point 1249 coord (805.91134 182.78848 0.37500662) points through the surrounding patch faces
Smoothing displacement ...
Iteration 0
Iteration 10
Iteration 20
Iteration 30
Iteration 40
Iteration 50
Iteration 60
Iteration 70
Displacement smoothed in = 0.063 s


Moving mesh ...

Iteration 0
Moving mesh using displacement scaling : min:1  max:1
Checking faces in error :
    non-orthogonality > 65  degrees                        : 0
    faces with face pyramid volume < 1e-13                 : 0
    faces with concavity > 80  degrees                     : 0
    faces with skewness > 4   (internal) or 4   (boundary) : 0
    faces with interpolation weights (0..1)  < 0.05        : 0
    faces with volume ratio of neighbour cells < 0.01      : 0
    faces on cells with determinant < 0.001                : 0
Successfully moved mesh
Moved mesh in = 0.015 s



Morph iteration 12
-----------------
Calculating patchDisplacement as distance to nearest surface point ...
Wanted displacement : average:0.0043973552 min:5.2699289e-07 max:0.03227762
Calculated surface displacement in = 0 s


Detecting near surfaces ...
Overriding nearest with intersection of close gaps at 0 out of 8622 points.
Overriding displacement on features :
   implicit features    : false
   explicit features    : true
   multi-patch features : false

Detected 0 baffle edges out of 16392 edges.
Initially selected 857 points out of 8622 for reverse attraction.
Selected 2279 points out of 8622 for reverse attraction.
Stringing feature edges : changed 0 points
Attraction:
     linear   : max:(0.03227762 0 0) avg:(0.00083929204 -5.1957711e-06 -0.00052676472)
     feature  : max:(-0.038165322 -0.036903154 0.00081742409) avg:(-0.00079634214 5.5241633e-07 0.0003683374)
Feature analysis : total master points:8164 attraction to :
    feature point   : 16
    feature edge    : 802
    nearest surface : 0
    rest            : 7346

--> FOAM Warning : Displacement (-0.00017181183 -0.00036660718 2.885689e-06) at mesh point 1249 coord (805.91033 182.78804 0.37500977) points through the surrounding patch faces
Smoothing displacement ...
Iteration 0
Iteration 10
Iteration 20
Iteration 30
Iteration 40
Iteration 50
Iteration 60
Iteration 70
Displacement smoothed in = 0.063 s


Moving mesh ...

Iteration 0
Moving mesh using displacement scaling : min:1  max:1
Checking faces in error :
    non-orthogonality > 65  degrees                        : 0
    faces with face pyramid volume < 1e-13                 : 0
    faces with concavity > 80  degrees                     : 0
    faces with skewness > 4   (internal) or 4   (boundary) : 0
    faces with interpolation weights (0..1)  < 0.05        : 0
    faces with volume ratio of neighbour cells < 0.01      : 0
    faces on cells with determinant < 0.001                : 0
Successfully moved mesh
Moved mesh in = 0 s



Morph iteration 13
-----------------
Calculating patchDisplacement as distance to nearest surface point ...
Wanted displacement : average:0.0029450437 min:3.41131e-07 max:0.027545162
Calculated surface displacement in = 0 s


Detecting near surfaces ...
Overriding nearest with intersection of close gaps at 0 out of 8622 points.
Overriding displacement on features :
   implicit features    : false
   explicit features    : true
   multi-patch features : false

Detected 0 baffle edges out of 16392 edges.
Initially selected 857 points out of 8622 for reverse attraction.
Selected 2279 points out of 8622 for reverse attraction.
Stringing feature edges : changed 0 points
Attraction:
     linear   : max:(0.027545162 0 0) avg:(0.00074713133 -1.0126265e-06 -0.00026545343)
     feature  : max:(-0.022040473 -0.021311571 0.00028609843) avg:(-0.00046074999 1.802352e-07 0.00020973749)
Feature analysis : total master points:8164 attraction to :
    feature point   : 16
    feature edge    : 802
    nearest surface : 0
    rest            : 7346

--> FOAM Warning : Displacement (-9.7290558e-05 0 0) at mesh point 1007 coord (805.91158 182.78868 0) points through the surrounding patch faces
Smoothing displacement ...
Iteration 0
Iteration 10
Iteration 20
Iteration 30
Iteration 40
Iteration 50
Iteration 60
Iteration 70
Displacement smoothed in = 0.062 s


Moving mesh ...

Iteration 0
Moving mesh using displacement scaling : min:1  max:1
Checking faces in error :
    non-orthogonality > 65  degrees                        : 0
    faces with face pyramid volume < 1e-13                 : 0
    faces with concavity > 80  degrees                     : 0
    faces with skewness > 4   (internal) or 4   (boundary) : 0
    faces with interpolation weights (0..1)  < 0.05        : 0
    faces with volume ratio of neighbour cells < 0.01      : 0
    faces on cells with determinant < 0.001                : 0
Successfully moved mesh
Moved mesh in = 0.016 s



Morph iteration 14
-----------------
Calculating patchDisplacement as distance to nearest surface point ...
Wanted displacement : average:0.0019056185 min:1.5684358e-07 max:0.019672047
Calculated surface displacement in = 0 s


Detecting near surfaces ...
Overriding nearest with intersection of close gaps at 0 out of 8622 points.
Overriding displacement on features :
   implicit features    : false
   explicit features    : true
   multi-patch features : false

Detected 0 baffle edges out of 16392 edges.
Initially selected 857 points out of 8622 for reverse attraction.
Selected 2279 points out of 8622 for reverse attraction.
Stringing feature edges : changed 0 points
Attraction:
     linear   : max:(0.019672047 0 0) avg:(0.00054484087 2.9603979e-09 -0.00011095289)
     feature  : max:(-0.011240641 -0.010868901 8.582953e-05) avg:(-0.00023525895 4.2445836e-08 0.0001060042)
Feature analysis : total master points:8164 attraction to :
    feature point   : 16
    feature edge    : 802
    nearest surface : 0
    rest            : 7346

--> FOAM Warning : Displacement (-3.1196526e-05 0 0) at mesh point 1007 coord (805.91148 182.78868 0) points through the surrounding patch faces
Smoothing displacement ...
Iteration 0
Iteration 10
Iteration 20
Iteration 30
Iteration 40
Iteration 50
Iteration 60
Iteration 70
Displacement smoothed in = 0.063 s


Moving mesh ...

Iteration 0
Moving mesh using displacement scaling : min:1  max:1
Checking faces in error :
    non-orthogonality > 65  degrees                        : 0
    faces with face pyramid volume < 1e-13                 : 0
    faces with concavity > 80  degrees                     : 0
    faces with skewness > 4   (internal) or 4   (boundary) : 0
    faces with interpolation weights (0..1)  < 0.05        : 0
    faces with volume ratio of neighbour cells < 0.01      : 0
    faces on cells with determinant < 0.001                : 0
Successfully moved mesh
Moved mesh in = 0.015 s



Morph iteration 15
-----------------
Calculating patchDisplacement as distance to nearest surface point ...
Wanted displacement : average:0.0010889984 min:1.7233268e-07 max:0.011699136
Calculated surface displacement in = 0 s


Detecting near surfaces ...
Overriding nearest with intersection of close gaps at 0 out of 8622 points.
Overriding displacement on features :
   implicit features    : false
   explicit features    : true
   multi-patch features : false

Detected 0 baffle edges out of 16392 edges.
Initially selected 857 points out of 8622 for reverse attraction.
Selected 2279 points out of 8622 for reverse attraction.
Stringing feature edges : changed 0 points
Attraction:
     linear   : max:(0.011699136 0 0) avg:(0.00032908926 9.8954816e-08 -3.3585958e-05)
     feature  : max:(-0.0049177806 -0.0047551444 2.1457382e-05) avg:(-0.00010299759 5.1766224e-10 4.6119183e-05)
Feature analysis : total master points:8164 attraction to :
    feature point   : 16
    feature edge    : 802
    nearest surface : 0
    rest            : 7346

--> FOAM Warning : Displacement (-8.2386047e-06 0 0) at mesh point 1007 coord (805.91145 182.78868 0) points through the surrounding patch faces
Smoothing displacement ...
Iteration 0
Iteration 10
Iteration 20
Iteration 30
Iteration 40
Iteration 50
Iteration 60
Iteration 70
Displacement smoothed in = 0.063 s


Moving mesh ...

Iteration 0
Moving mesh using displacement scaling : min:1  max:1
Checking faces in error :
    non-orthogonality > 65  degrees                        : 0
    faces with face pyramid volume < 1e-13                 : 0
    faces with concavity > 80  degrees                     : 0
    faces with skewness > 4   (internal) or 4   (boundary) : 0
    faces with interpolation weights (0..1)  < 0.05        : 0
    faces with volume ratio of neighbour cells < 0.01      : 0
    faces on cells with determinant < 0.001                : 0
Successfully moved mesh
Moved mesh in = 0 s



Morph iteration 16
-----------------
Calculating patchDisplacement as distance to nearest surface point ...
Wanted displacement : average:0.00051919308 min:1.8632486e-08 max:0.0056611137
Calculated surface displacement in = 0.015 s


Detecting near surfaces ...
Overriding nearest with intersection of close gaps at 0 out of 8622 points.
Overriding displacement on features :
   implicit features    : false
   explicit features    : true
   multi-patch features : false

Detected 0 baffle edges out of 16392 edges.
Initially selected 857 points out of 8622 for reverse attraction.
Selected 2279 points out of 8622 for reverse attraction.
Stringing feature edges : changed 0 points
Attraction:
     linear   : max:(0.0056611137 0 0) avg:(0.00016219647 5.8156478e-08 -3.8230643e-06)
     feature  : max:(-0.001770401 -0.001711852 4.2914765e-06) avg:(-3.7092242e-05 -8.3672466e-09 1.6547939e-05)
Feature analysis : total master points:8164 attraction to :
    feature point   : 16
    feature edge    : 802
    nearest surface : 0
    rest            : 7346

--> FOAM Warning : Displacement (-1.6652054e-06 0 0) at mesh point 1007 coord (805.91144 182.78868 0) points through the surrounding patch faces
Smoothing displacement ...
Iteration 0
Iteration 10
Iteration 20
Iteration 30
Iteration 40
Iteration 50
Iteration 60
Iteration 70
Displacement smoothed in = 0.047 s


Moving mesh ...

Iteration 0
Moving mesh using displacement scaling : min:1  max:1
Checking faces in error :
    non-orthogonality > 65  degrees                        : 0
    faces with face pyramid volume < 1e-13                 : 0
    faces with concavity > 80  degrees                     : 0
    faces with skewness > 4   (internal) or 4   (boundary) : 0
    faces with interpolation weights (0..1)  < 0.05        : 0
    faces with volume ratio of neighbour cells < 0.01      : 0
    faces on cells with determinant < 0.001                : 0
Successfully moved mesh
Moved mesh in = 0.016 s



Morph iteration 17
-----------------
Calculating patchDisplacement as distance to nearest surface point ...
Wanted displacement : average:0.00019716657 min:1.1476686e-10 max:0.0021293467
Calculated surface displacement in = 0 s


Detecting near surfaces ...
Overriding nearest with intersection of close gaps at 0 out of 8622 points.
Overriding displacement on features :
   implicit features    : false
   explicit features    : true
   multi-patch features : false

Detected 0 baffle edges out of 16392 edges.
Initially selected 857 points out of 8622 for reverse attraction.
Selected 2279 points out of 8622 for reverse attraction.
Stringing feature edges : changed 0 points
Attraction:
     linear   : max:(0.0021293467 0 0) avg:(6.2750968e-05 4.2582072e-08 2.7908034e-06)
     feature  : max:(-0.00049128629 -0.00047503892 6.4372147e-07) avg:(-1.0293187e-05 -7.9486769e-09 4.5832928e-06)
Feature analysis : total master points:8164 attraction to :
    feature point   : 16
    feature edge    : 802
    nearest surface : 0
    rest            : 7346

--> FOAM Warning : Displacement (-1.7394644e-07 0 0) at mesh point 1007 coord (805.91144 182.78868 0) points through the surrounding patch faces
Smoothing displacement ...
Iteration 0
Iteration 10
Iteration 20
Iteration 30
Iteration 40
Iteration 50
Iteration 60
Iteration 70
Displacement smoothed in = 0.062 s


Moving mesh ...

Iteration 0
Moving mesh using displacement scaling : min:1  max:1
Checking faces in error :
    non-orthogonality > 65  degrees                        : 0
    faces with face pyramid volume < 1e-13                 : 0
    faces with concavity > 80  degrees                     : 0
    faces with skewness > 4   (internal) or 4   (boundary) : 0
    faces with interpolation weights (0..1)  < 0.05        : 0
    faces with volume ratio of neighbour cells < 0.01      : 0
    faces on cells with determinant < 0.001                : 0
Successfully moved mesh
Moved mesh in = 0.016 s



Morph iteration 18
-----------------
Calculating patchDisplacement as distance to nearest surface point ...
Wanted displacement : average:5.4724701e-05 min:2.8938718e-09 max:0.00057072634
Calculated surface displacement in = 0 s


Detecting near surfaces ...
Overriding nearest with intersection of close gaps at 0 out of 8622 points.
Overriding displacement on features :
   implicit features    : false
   explicit features    : true
   multi-patch features : false

Detected 0 baffle edges out of 16392 edges.
Initially selected 857 points out of 8622 for reverse attraction.
Selected 2279 points out of 8622 for reverse attraction.
Stringing feature edges : changed 0 points
Attraction:
     linear   : max:(0.00057072634 0 0) avg:(1.7645371e-05 4.5479517e-08 1.9370951e-06)
     feature  : max:(-9.3344394e-05 -9.0257395e-05 6.4372147e-08) avg:(-1.9541214e-06 -5.5035283e-09 8.6989807e-07)
Feature analysis : total master points:8164 attraction to :
    feature point   : 16
    feature edge    : 802
    nearest surface : 0
    rest            : 7346

--> FOAM Warning : Displacement (-4.3782014e-06 2.5506939e-05 1.8005514e-09) at mesh point 1675 coord (806.98983 183.85617 0.37224846) points through the surrounding patch faces
Smoothing displacement ...
Iteration 0
Iteration 10
Iteration 20
Iteration 30
Iteration 40
Iteration 50
Iteration 60
Iteration 70
Displacement smoothed in = 0.062 s


Moving mesh ...

Iteration 0
Moving mesh using displacement scaling : min:1  max:1
Checking faces in error :
    non-orthogonality > 65  degrees                        : 0
    faces with face pyramid volume < 1e-13                 : 0
    faces with concavity > 80  degrees                     : 0
    faces with skewness > 4   (internal) or 4   (boundary) : 0
    faces with interpolation weights (0..1)  < 0.05        : 0
    faces with volume ratio of neighbour cells < 0.01      : 0
    faces on cells with determinant < 0.001                : 0
Successfully moved mesh
Moved mesh in = 0.016 s



Morph iteration 19
-----------------
Calculating patchDisplacement as distance to nearest surface point ...
Wanted displacement : average:9.3285544e-06 min:2.0483526e-10 max:8.9664559e-05
Calculated surface displacement in = 0 s


Detecting near surfaces ...
Overriding nearest with intersection of close gaps at 0 out of 8622 points.
Overriding displacement on features :
   implicit features    : false
   explicit features    : true
   multi-patch features : false

Detected 0 baffle edges out of 16392 edges.
Initially selected 857 points out of 8622 for reverse attraction.
Selected 2279 points out of 8622 for reverse attraction.
Stringing feature edges : changed 0 points
Attraction:
     linear   : max:(8.9664559e-05 0 0) avg:(3.0363235e-06 5.0218521e-08 5.5134654e-07)
     feature  : max:(-9.1010785e-06 -8.8000961e-06 3.2186076e-09) avg:(-1.8950031e-07 -2.7576385e-09 8.4766107e-08)
Feature analysis : total master points:8164 attraction to :
    feature point   : 16
    feature edge    : 802
    nearest surface : 0
    rest            : 7346

--> FOAM Warning : Displacement (0 6.3104555e-06 -5.5511151e-17) at mesh point 1675 coord (806.98982 183.85619 0.37224847) points through the surrounding patch faces
Smoothing displacement ...
Iteration 0
Iteration 10
Iteration 20
Iteration 30
Iteration 40
Iteration 50
Iteration 60
Iteration 70
Displacement smoothed in = 0.047 s


Moving mesh ...

Iteration 0
Moving mesh using displacement scaling : min:1  max:1
Checking faces in error :
    non-orthogonality > 65  degrees                        : 0
    faces with face pyramid volume < 1e-13                 : 0
    faces with concavity > 80  degrees                     : 0
    faces with skewness > 4   (internal) or 4   (boundary) : 0
    faces with interpolation weights (0..1)  < 0.05        : 0
    faces with volume ratio of neighbour cells < 0.01      : 0
    faces on cells with determinant < 0.001                : 0
Successfully moved mesh
Moved mesh in = 0.016 s


Repatching faces according to nearest surface ...
Repatched 0 faces in = 0 s


Edge intersection testing:
    Number of edges             : 144785
    Number of edges to retest   : 63488
    Number of intersected edges : 7782
Merging 478 sets of faces.

Edge intersection testing:
    Number of edges             : 144291
    Number of edges to retest   : 2107
    Number of intersected edges : 7288

Undo iteration 0
----------------
Checking faces in error :
    non-orthogonality > 65  degrees                        : 0
    faces with face pyramid volume < 1e-13                 : 0
    faces with concavity > 80  degrees                     : 0
    faces with skewness > 4   (internal) or 4   (boundary) : 0
    faces with interpolation weights (0..1)  < 0.05        : 0
    faces with volume ratio of neighbour cells < 0.01      : 0
    faces on cells with determinant < 0.001                : 0

Merging all points on surface that
- are used by only two boundary faces and
- make an angle with a cosine of more than 0.98480775.

Removing 486 straight edge points ...

Edge intersection testing:
    Number of edges             : 144291
    Number of edges to retest   : 2107
    Number of intersected edges : 7288

Undo iteration 0
----------------
Checking faces in error :
    non-orthogonality > 65  degrees                        : 0
    faces with face pyramid volume < 1e-13                 : 0
    faces with concavity > 80  degrees                     : 0
    faces with skewness > 4   (internal) or 4   (boundary) : 0
    faces with interpolation weights (0..1)  < 0.05        : 0
    faces with volume ratio of neighbour cells < 0.01      : 0
    faces on cells with determinant < 0.001                : 0
Snapped mesh : cells:42732  faces:144291  points:59541
Cells per refinement level:
    0	2034
    1	662
    2	1490
    3	4324
    4	13610
    5	20612
Writing mesh to time constant
Wrote mesh in = 0.296 s.
Mesh snapped in = 1.843 s.

Shrinking and layer addition phase
----------------------------------

Using mesh parameters 
{
    maxNonOrtho     65;
    maxBoundarySkewness 4;
    maxInternalSkewness 4;
    maxConcave      80;
    minVol          1e-13;
    minTetQuality   -1e+30;
    minArea         -1;
    minTwist        -1e+30;
    minDeterminant  0.001;
    minFaceWeight   0.05;
    minVolRatio     0.01;
    minTriangleTwist -1;
    nSmoothScale    4;
    errorReduction  0.75;
    relaxed
    {
        maxNonOrtho     75;
    }
}



Merging all faces of a cell
---------------------------
    - which are on the same patch
    - which make an angle < 30 degrees
      (cos:0.8660254)
    - as long as the resulting face doesn't become concave by more than 90 degrees
      (0=straight, 180=fully concave)

Merging 0 sets of faces.

No faces merged ...

Merging all points on surface that
- are used by only two boundary faces and
- make an angle with a cosine of more than 0.8660254.

No straight edges simplified and no points removed ...

Checking mesh manifoldness ...

Checking initial mesh ...
Checking faces in error :
    non-orthogonality > 65  degrees                        : 0
[...]
Writing pointProcAddressing to "CR_VS-UMCF_J-DOE08/processor3/constant/polyMesh"
Writing faceProcAddressing to "CR_VS-UMCF_J-DOE08/processor3/constant/polyMesh"
Writing cellProcAddressing to "CR_VS-UMCF_J-DOE08/processor3/constant/polyMesh"
Writing boundaryProcAddressing to "CR_VS-UMCF_J-DOE08/processor3/constant/polyMesh"

Reading processor 4 mesh from "CR_VS-UMCF_J-DOE08/processor4"
Writing pointProcAddressing to "CR_VS-UMCF_J-DOE08/processor4/constant/polyMesh"
Writing faceProcAddressing to "CR_VS-UMCF_J-DOE08/processor4/constant/polyMesh"
Writing cellProcAddressing to "CR_VS-UMCF_J-DOE08/processor4/constant/polyMesh"
Writing boundaryProcAddressing to "CR_VS-UMCF_J-DOE08/processor4/constant/polyMesh"

Reading processor 5 mesh from "CR_VS-UMCF_J-DOE08/processor5"
Writing pointProcAddressing to "CR_VS-UMCF_J-DOE08/processor5/constant/polyMesh"
Writing faceProcAddressing to "CR_VS-UMCF_J-DOE08/processor5/constant/polyMesh"
Writing cellProcAddressing to "CR_VS-UMCF_J-DOE08/processor5/constant/polyMesh"
Writing boundaryProcAddressing to "CR_VS-UMCF_J-DOE08/processor5/constant/polyMesh"

Reading processor 6 mesh from "CR_VS-UMCF_J-DOE08/processor6"
Writing pointProcAddressing to "CR_VS-UMCF_J-DOE08/processor6/constant/polyMesh"
Writing faceProcAddressing to "CR_VS-UMCF_J-DOE08/processor6/constant/polyMesh"
Writing cellProcAddressing to "CR_VS-UMCF_J-DOE08/processor6/constant/polyMesh"
Writing boundaryProcAddressing to "CR_VS-UMCF_J-DOE08/processor6/constant/polyMesh"

Reading processor 7 mesh from "CR_VS-UMCF_J-DOE08/processor7"
Writing pointProcAddressing to "CR_VS-UMCF_J-DOE08/processor7/constant/polyMesh"
Writing faceProcAddressing to "CR_VS-UMCF_J-DOE08/processor7/constant/polyMesh"
Writing cellProcAddressing to "CR_VS-UMCF_J-DOE08/processor7/constant/polyMesh"
Writing boundaryProcAddressing to "CR_VS-UMCF_J-DOE08/processor7/constant/polyMesh"

Reading processor 8 mesh from "CR_VS-UMCF_J-DOE08/processor8"
Writing pointProcAddressing to "CR_VS-UMCF_J-DOE08/processor8/constant/polyMesh"
Writing faceProcAddressing to "CR_VS-UMCF_J-DOE08/processor8/constant/polyMesh"
Writing cellProcAddressing to "CR_VS-UMCF_J-DOE08/processor8/constant/polyMesh"
Writing boundaryProcAddressing to "CR_VS-UMCF_J-DOE08/processor8/constant/polyMesh"

Reading processor 9 mesh from "CR_VS-UMCF_J-DOE08/processor9"
Writing pointProcAddressing to "CR_VS-UMCF_J-DOE08/processor9/constant/polyMesh"
Writing faceProcAddressing to "CR_VS-UMCF_J-DOE08/processor9/constant/polyMesh"
Writing cellProcAddressing to "CR_VS-UMCF_J-DOE08/processor9/constant/polyMesh"
Writing boundaryProcAddressing to "CR_VS-UMCF_J-DOE08/processor9/constant/polyMesh"

Reading processor 10 mesh from "CR_VS-UMCF_J-DOE08/processor10"
Writing pointProcAddressing to "CR_VS-UMCF_J-DOE08/processor10/constant/polyMesh"
Writing faceProcAddressing to "CR_VS-UMCF_J-DOE08/processor10/constant/polyMesh"
Writing cellProcAddressing to "CR_VS-UMCF_J-DOE08/processor10/constant/polyMesh"
Writing boundaryProcAddressing to "CR_VS-UMCF_J-DOE08/processor10/constant/polyMesh"

Reading processor 11 mesh from "CR_VS-UMCF_J-DOE08/processor11"
Writing pointProcAddressing to "CR_VS-UMCF_J-DOE08/processor11/constant/polyMesh"
Writing faceProcAddressing to "CR_VS-UMCF_J-DOE08/processor11/constant/polyMesh"
Writing cellProcAddressing to "CR_VS-UMCF_J-DOE08/processor11/constant/polyMesh"
Writing boundaryProcAddressing to "CR_VS-UMCF_J-DOE08/processor11/constant/polyMesh"

End.

/*---------------------------------------------------------------------------*\
  =========                 |
  \\      /  F ield         | OpenFOAM: The Open Source CFD Toolbox
   \\    /   O peration     | Website:  https://openfoam.org
    \\  /    A nd           | Version:  8
     \\/     M anipulation  |
\*---------------------------------------------------------------------------*/
/*   Windows 32 and 64 bit porting by blueCAPE: http://www.bluecape.com.pt   *\
|  Based on Windows porting (2.0.x v4) by Symscape: http://www.symscape.com   |
\*---------------------------------------------------------------------------*/
Build  : 8-53cd1468e263
Exec   : createPatch -region vegetation -overwrite
Date   : Nov 26 2024
Time   : 16:43:21
Host   : "FOAM2"
PID    : 13420
I/O    : uncollated
Case   : C:/MetaFoam_Cases/CR_VS-UMCF_J-DOE08
nProcs : 1
SigFpe : Enabling floating point exception trapping (FOAM_SIGFPE).
fileModificationChecking : Monitoring run-time modified files using timeStampMaster (fileModificationSkew 10)
allowSystemOperations : Allowing user-supplied system call operations

// * * * * * * * * * * * * * * * * * * * * * * * * * * * * * * * * * * * * * //
Create time

Create polyMesh vegetation for time = 0

Reading createPatchDict

Adding new patch air_to_vegetation as patch 8 from 
{
    type            wall;
}


Moving faces from patch vegetation to patch 8

Doing topology modification to order faces.

Not synchronising points.

Removing patches with no faces in them.

Removing zero-sized patch vegetation type wall at position 6
Removing patches.
Writing repatched mesh to 0

End

/*---------------------------------------------------------------------------*\
  =========                 |
  \\      /  F ield         | OpenFOAM: The Open Source CFD Toolbox
   \\    /   O peration     | Website:  https://openfoam.org
    \\  /    A nd           | Version:  8
     \\/     M anipulation  |
\*---------------------------------------------------------------------------*/
/*   Windows 32 and 64 bit porting by blueCAPE: http://www.bluecape.com.pt   *\
|  Based on Windows porting (2.0.x v4) by Symscape: http://www.symscape.com   |
\*---------------------------------------------------------------------------*/
Build  : 8-53cd1468e263
Exec   : changeDictionary -region vegetation
Date   : Nov 26 2024
Time   : 16:43:24
Host   : "FOAM2"
PID    : 22088
I/O    : uncollated
Case   : C:/MetaFoam_Cases/CR_VS-UMCF_J-DOE08
nProcs : 1
SigFpe : Enabling floating point exception trapping (FOAM_SIGFPE).
fileModificationChecking : Monitoring run-time modified files using timeStampMaster (fileModificationSkew 10)
allowSystemOperations : Allowing user-supplied system call operations

// * * * * * * * * * * * * * * * * * * * * * * * * * * * * * * * * * * * * * //
--> FOAM Warning : 
changeDictionary has been superseded by foamDictionary and is now deprecated.

Create time

Create mesh vegetation for time = 0

Read dictionary changeDictionaryDict with replacements for dictionaries 1(boundary)
Reading polyMesh/boundary file to extract patch names
Loaded dictionary boundary with entries 
8
(
left
right
back
front
bottom
top
Building
air_to_vegetation
)

Extracted patch groups:
    group wall with patches 
3
(
bottom
Building
air_to_vegetation
)

Replacing entries in dictionary boundary
Special handling of boundary as polyMesh/boundary file.
Merging entries from 
8
(
left
right
back
front
bottom
top
air_to_vegetation
Building
)

fieldDict:
{
    left
    {
        type            mappedPatch;
        nFaces          154;
        startFace       193003;
        sampleMode      nearestPatchFace;
        sampleRegion    air;
        samplePatch     left;
        offsetMode      uniform;
        offset          ( 0 0 0 );
    }
    right
    {
        type            mappedPatch;
        nFaces          154;
        startFace       193157;
        sampleMode      nearestPatchFace;
        sampleRegion    air;
        samplePatch     right;
        offsetMode      uniform;
        offset          ( 0 0 0 );
    }
    back
    {
        type            mappedPatch;
        nFaces          98;
        startFace       193311;
        sampleMode      nearestPatchFace;
        sampleRegion    air;
        samplePatch     back;
        offsetMode      uniform;
        offset          ( 0 0 0 );
    }
    front
    {
        type            mappedPatch;
        nFaces          98;
        startFace       193409;
        sampleMode      nearestPatchFace;
        sampleRegion    air;
        samplePatch     front;
        offsetMode      uniform;
        offset          ( 0 0 0 );
    }
    bottom
    {
        type            mappedWall;
        inGroups        List<word> 0();
        nFaces          3367;
        startFace       193507;
        sampleMode      nearestPatchFace;
        sampleRegion    air;
        samplePatch     bottom;
        offsetMode      uniform;
        offset          ( 0 0 0 );
    }
    top
    {
        type            mappedPatch;
        nFaces          308;
        startFace       196874;
        sampleMode      nearestPatchFace;
        sampleRegion    air;
        samplePatch     top;
        offsetMode      uniform;
        offset          ( 0 0 0 );
    }
    Building
    {
        type            mappedWall;
        inGroups        List<word> 0();
        nFaces          7612;
        startFace       197182;
        sampleMode      nearestPatchFace;
        sampleRegion    air;
        samplePatch     Building;
        offsetMode      uniform;
        offset          ( 0 0 0 );
    }
    air_to_vegetation
    {
        type            mappedWall;
        inGroups        List<word> 0();
        nFaces          1207;
        startFace       204794;
        sampleMode      nearestCell;
        sampleRegion    air;
        offsetMode      uniform;
        offset          ( 0 0 0 );
    }
}

Writing modified boundary

End

/*---------------------------------------------------------------------------*\
  =========                 |
  \\      /  F ield         | OpenFOAM: The Open Source CFD Toolbox
   \\    /   O peration     | Website:  https://openfoam.org
    \\  /    A nd           | Version:  8
     \\/     M anipulation  |
\*---------------------------------------------------------------------------*/
/*   Windows 32 and 64 bit porting by blueCAPE: http://www.bluecape.com.pt   *\
|  Based on Windows porting (2.0.x v4) by Symscape: http://www.symscape.com   |
\*---------------------------------------------------------------------------*/
Build  : 8-53cd1468e263
Exec   : extrudeMesh
Date   : Nov 26 2024
Time   : 16:43:25
Host   : "FOAM2"
PID    : 14600
I/O    : uncollated
Case   : C:/MetaFoam_Cases/CR_VS-UMCF_J-DOE08
nProcs : 1
SigFpe : Enabling floating point exception trapping (FOAM_SIGFPE).
fileModificationChecking : Monitoring run-time modified files using timeStampMaster (fileModificationSkew 10)
allowSystemOperations : Allowing user-supplied system call operations

// * * * * * * * * * * * * * * * * * * * * * * * * * * * * * * * * * * * * * //
Create time

Create mesh for time = 0

Selecting extrudeModel linearNormal
Extruding from surface using model linearNormal
Flipping normals before extruding
Not collapsing any edges after extrusion

Extruding surfaceMesh read from file "constant/triSurface/Building.stl.gz"

Flipping faces.

Extruding surface with :
    points     : 20262
    faces      : 40112
    normals[0] : (0 1 0)

Mesh bounding box : (805.91144 132.8562 0) (826.02002 183.8562 12)
        with span : (20.108582 51 12)
Merge distance    : 0

Writing mesh to "constant/region0"

End

/*---------------------------------------------------------------------------*\
  =========                 |
  \\      /  F ield         | OpenFOAM: The Open Source CFD Toolbox
   \\    /   O peration     | Website:  https://openfoam.org
    \\  /    A nd           | Version:  8
     \\/     M anipulation  |
\*---------------------------------------------------------------------------*/
/*   Windows 32 and 64 bit porting by blueCAPE: http://www.bluecape.com.pt   *\
|  Based on Windows porting (2.0.x v4) by Symscape: http://www.symscape.com   |
\*---------------------------------------------------------------------------*/
Build  : 8-53cd1468e263
Exec   : createPatch -region Building -overwrite
Date   : Nov 26 2024
Time   : 16:43:31
Host   : "FOAM2"
PID    : 12888
I/O    : uncollated
Case   : C:/MetaFoam_Cases/CR_VS-UMCF_J-DOE08
nProcs : 1
SigFpe : Enabling floating point exception trapping (FOAM_SIGFPE).
fileModificationChecking : Monitoring run-time modified files using timeStampMaster (fileModificationSkew 10)
allowSystemOperations : Allowing user-supplied system call operations

// * * * * * * * * * * * * * * * * * * * * * * * * * * * * * * * * * * * * * //
Create time

Create polyMesh Building for time = 0

Reading createPatchDict

Adding new patch buildings_to_air as patch 3 from 
{
    type            patch;
}

Adding new patch interior as patch 4 from 
{
    type            patch;
}


Moving faces from patch originalPatch to patch 3
Moving faces from patch otherSide to patch 4

Doing topology modification to order faces.

Not synchronising points.

Removing patches with no faces in them.

Removing zero-sized patch originalPatch type patch at position 1
Removing zero-sized patch otherSide type patch at position 2
Removing patches.
Writing repatched mesh to 0

End

/*---------------------------------------------------------------------------*\
  =========                 |
  \\      /  F ield         | OpenFOAM: The Open Source CFD Toolbox
   \\    /   O peration     | Website:  https://openfoam.org
    \\  /    A nd           | Version:  8
     \\/     M anipulation  |
\*---------------------------------------------------------------------------*/
/*   Windows 32 and 64 bit porting by blueCAPE: http://www.bluecape.com.pt   *\
|  Based on Windows porting (2.0.x v4) by Symscape: http://www.symscape.com   |
\*---------------------------------------------------------------------------*/
Build  : 8-53cd1468e263
Exec   : changeDictionary -region Building
Date   : Nov 26 2024
Time   : 16:43:39
Host   : "FOAM2"
PID    : 24560
I/O    : uncollated
Case   : C:/MetaFoam_Cases/CR_VS-UMCF_J-DOE08
nProcs : 1
SigFpe : Enabling floating point exception trapping (FOAM_SIGFPE).
fileModificationChecking : Monitoring run-time modified files using timeStampMaster (fileModificationSkew 10)
allowSystemOperations : Allowing user-supplied system call operations

// * * * * * * * * * * * * * * * * * * * * * * * * * * * * * * * * * * * * * //
--> FOAM Warning : 
changeDictionary has been superseded by foamDictionary and is now deprecated.

Create time

Create mesh Building for time = 0

Read dictionary changeDictionaryDict with replacements for dictionaries 1(boundary)
Reading polyMesh/boundary file to extract patch names
Loaded dictionary boundary with entries 
3
(
sides
buildings_to_air
interior
)

Extracted patch groups:
    group wall with patches 1(sides)
Replacing entries in dictionary boundary
Special handling of boundary as polyMesh/boundary file.
Merging entries from 1(buildings_to_air)
fieldDict:
{
    sides
    {
        type            wall;
        inGroups        List<word> 0();
        nFaces          4080;
        startFace       960648;
    }
    buildings_to_air
    {
        type            mappedWall;
        nFaces          40112;
        startFace       964728;
        sampleMode      nearestPatchFace;
        sampleRegion    air;
        samplePatch     Building;
        offsetMode      uniform;
        offset          ( 0 0 0 );
    }
    interior
    {
        type            patch;
        nFaces          40112;
        startFace       1004840;
    }
}

Writing modified boundary

End

/*---------------------------------------------------------------------------*\
  =========                 |
  \\      /  F ield         | OpenFOAM: The Open Source CFD Toolbox
   \\    /   O peration     | Website:  https://openfoam.org
    \\  /    A nd           | Version:  8
     \\/     M anipulation  |
\*---------------------------------------------------------------------------*/
/*   Windows 32 and 64 bit porting by blueCAPE: http://www.bluecape.com.pt   *\
|  Based on Windows porting (2.0.x v4) by Symscape: http://www.symscape.com   |
\*---------------------------------------------------------------------------*/
Build  : 8-53cd1468e263
Exec   : topoSet -region Building
Date   : Nov 26 2024
Time   : 16:43:41
Host   : "FOAM2"
PID    : 15188
I/O    : uncollated
Case   : C:/MetaFoam_Cases/CR_VS-UMCF_J-DOE08
nProcs : 1
SigFpe : Enabling floating point exception trapping (FOAM_SIGFPE).
fileModificationChecking : Monitoring run-time modified files using timeStampMaster (fileModificationSkew 10)
allowSystemOperations : Allowing user-supplied system call operations

// * * * * * * * * * * * * * * * * * * * * * * * * * * * * * * * * * * * * * //
Create time

Create polyMesh Building for time = 0

Reading topoSetDict

Time = 0
    mesh not changed.
Created cellSet Building
    Applying source rotatedBoxToCell
    Adding cells with center within rotated box 
    cellSet Building now size 401120
Created cellZoneSet Building
    Applying source setToCellZone
    Adding all cells from cellSet Building ...
    cellZoneSet Building now size 401120
End

/*---------------------------------------------------------------------------*\
  =========                 |
  \\      /  F ield         | OpenFOAM: The Open Source CFD Toolbox
   \\    /   O peration     | Website:  https://openfoam.org
    \\  /    A nd           | Version:  8
     \\/     M anipulation  |
\*---------------------------------------------------------------------------*/
/*   Windows 32 and 64 bit porting by blueCAPE: http://www.bluecape.com.pt   *\
|  Based on Windows porting (2.0.x v4) by Symscape: http://www.symscape.com   |
\*---------------------------------------------------------------------------*/
Build  : 8-53cd1468e263
Exec   : topoSet -region air
Date   : Nov 26 2024
Time   : 16:43:44
Host   : "FOAM2"
PID    : 21464
I/O    : uncollated
Case   : C:/MetaFoam_Cases/CR_VS-UMCF_J-DOE08
nProcs : 1
SigFpe : Enabling floating point exception trapping (FOAM_SIGFPE).
fileModificationChecking : Monitoring run-time modified files using timeStampMaster (fileModificationSkew 10)
allowSystemOperations : Allowing user-supplied system call operations

// * * * * * * * * * * * * * * * * * * * * * * * * * * * * * * * * * * * * * //
Create time

Create polyMesh air for time = 0

Reading topoSetDict

Time = 0
    mesh not changed.
Created cellSet vegetation
    Applying source surfaceToCell
    Adding cells in relation to surface "constant/triSurface/vegetation.stl" ...
    Marked inside/outside using surface intersection in = 1.062 s

    cellSet vegetation now size 1920
Created cellZoneSet vegetation
    Applying source setToCellZone
    Adding all cells from cellSet vegetation ...
    cellZoneSet vegetation now size 1920
End

/*---------------------------------------------------------------------------*\
  =========                 |
  \\      /  F ield         | OpenFOAM: The Open Source CFD Toolbox
   \\    /   O peration     | Website:  https://openfoam.org
    \\  /    A nd           | Version:  8
     \\/     M anipulation  |
\*---------------------------------------------------------------------------*/
/*   Windows 32 and 64 bit porting by blueCAPE: http://www.bluecape.com.pt   *\
|  Based on Windows porting (2.0.x v4) by Symscape: http://www.symscape.com   |
\*---------------------------------------------------------------------------*/
Build  : 8-53cd1468e263
Exec   : setFields -region air
Date   : Nov 26 2024
Time   : 16:43:46
Host   : "FOAM2"
PID    : 23384
I/O    : uncollated
Case   : C:/MetaFoam_Cases/CR_VS-UMCF_J-DOE08
nProcs : 1
SigFpe : Enabling floating point exception trapping (FOAM_SIGFPE).
fileModificationChecking : Monitoring run-time modified files using timeStampMaster (fileModificationSkew 10)
allowSystemOperations : Allowing user-supplied system call operations

// * * * * * * * * * * * * * * * * * * * * * * * * * * * * * * * * * * * * * //
Create time

Create mesh air for time = 0

Reading setFieldsDict

Setting field default values
    Setting internal values of volScalarField LAD

Setting field region values
    Adding all cells of cellZone vegetation ...
    Found matching zone vegetation with 1920 cells.
    Setting internal values of volScalarField LAD

End

