/*---------------------------------------------------------------------------*\
  =========                 |
  \\      /  F ield         | OpenFOAM: The Open Source CFD Toolbox
   \\    /   O peration     | Website:  https://openfoam.org
    \\  /    A nd           | Version:  8
     \\/     M anipulation  |
\*---------------------------------------------------------------------------*/
/*   Windows 32 and 64 bit porting by blueCAPE: http://www.bluecape.com.pt   *\
|  Based on Windows porting (2.0.x v4) by Symscape: http://www.symscape.com   |
\*---------------------------------------------------------------------------*/
Build  : 8-53cd1468e263
Exec   : solarRayTracingGen -region vegetation -parallel
Date   : Nov 26 2024
Time   : 16:44:21
Host   : "FOAM2"
PID    : 21592
I/O    : uncollated
Case   : C:/MetaFoam_Cases/CR_VS-UMCF_J-DOE08
nProcs : 12
Slaves : 
11
(
"FOAM2.21480"
"FOAM2.21404"
"FOAM2.17240"
"FOAM2.22052"
"FOAM2.15784"
"FOAM2.16876"
"FOAM2.23688"
"FOAM2.19200"
"FOAM2.20292"
"FOAM2.20688"
"FOAM2.10700"
)

Pstream initialized with:
    floatTransfer      : 0
    nProcsSimpleSum    : 0
    commsType          : nonBlocking
    polling iterations : 0
SigFpe : Enabling floating point exception trapping (FOAM_SIGFPE).
fileModificationChecking : Monitoring run-time modified files using timeStampMaster (fileModificationSkew 10)
allowSystemOperations : Allowing user-supplied system call operations

// * * * * * * * * * * * * * * * * * * * * * * * * * * * * * * * * * * * * * //
Create time

Create mesh vegetation for time = 0


Creating single cell mesh...
[8] 
Created single cell mesh...
[10] 
Created single cell mesh...
[7] 
Created single cell mesh...
[1] 
Created single cell mesh...
[0] 
Created single cell mesh...
[9] 
Created single cell mesh...
[6] 
Created single cell mesh...
[3] 
Created single cell mesh...
[5] 
Created single cell mesh...
[11] 
Created single cell mesh...
[2] 
Created single cell mesh...
[4] 
Created single cell mesh...
howManyCoarseFacesPerPatch: 
18
(
0
0
0
0
45
0
601
29
0
0
0
0
0
0
0
0
0
0
)

howManyFineFacesPerPatch: 
18
(
0
0
0
0
228
0
601
132
0
0
0
0
0
0
0
0
0
0
)


Total number of coarse faces: 8597
[0] 
View factor patches included in the calculation : 3(4 6 7)
nVisibleFaceFacesList: 
5
(
675{0}
675{0}
675{0}
675{0}
675{0}
)

nVisibleFaceFacesListFINE: 
5
(

961
(
0
1
0
0
0
0
0
0
1
1
0
1
1
0
0
1
0
1
1
1
0
0
1
1
1
1
1
1
1
1
0
0
0
0
0
0
1
1
1
1
1
1
0
0
0
1
1
1
1
1
0
1
1
1
1
0
0
1
1
0
1
1
0
0
0
0
1
1
1
1
1
0
1
1
1
1
1
1
1
0
0
0
0
1
1
1
0
0
0
1
0
0
1
1
1
1
0
0
0
1
1
1
0
0
0
1
1
1
1
1
1
1
1
1
1
1
1
1
1
1
1
1
1
1
1
1
1
1
1
1
0
1
0
0
0
0
0
0
1
1
1
1
1
1
0
0
0
1
1
1
0
0
1
0
0
0
0
0
0
1
1
1
1
1
1
1
1
1
1
0
1
1
1
1
1
1
0
1
1
1
1
1
1
1
1
1
1
1
0
0
0
0
0
0
0
0
0
0
0
0
0
0
0
0
0
0
0
0
0
0
0
0
0
0
0
0
0
0
0
0
0
0
0
0
0
0
0
0
0
0
0
0
0
0
0
0
0
0
0
0
0
0
0
0
0
0
0
0
0
0
0
0
0
0
0
0
0
0
0
0
0
0
0
0
0
0
0
0
0
0
0
0
0
0
1
0
0
1
1
0
0
0
0
0
1
1
0
0
0
0
0
0
0
0
0
0
0
0
0
0
0
1
1
0
0
0
0
0
0
0
0
0
0
0
0
1
1
1
1
1
0
1
1
0
1
1
0
1
1
0
1
1
0
1
0
1
1
1
1
1
1
1
1
0
0
0
1
1
1
1
1
1
1
1
1
1
1
1
1
1
1
0
0
0
0
1
1
1
1
0
0
0
0
0
0
1
1
1
0
0
0
0
0
1
1
1
0
0
1
1
1
0
1
1
1
0
1
1
1
1
1
1
0
0
1
1
1
0
1
1
1
1
1
1
1
1
1
1
1
1
1
1
1
1
1
1
1
1
1
1
1
1
1
1
1
1
1
1
1
0
0
0
0
0
0
0
0
0
0
0
0
0
0
0
0
0
0
0
0
0
0
0
0
0
0
0
0
0
0
0
0
0
0
0
0
0
0
0
0
0
0
0
0
0
0
0
0
0
0
0
0
0
0
0
0
0
0
0
0
0
0
0
0
0
0
0
0
0
0
0
0
0
0
0
0
0
0
0
0
0
0
0
0
0
0
0
0
0
0
0
0
0
0
0
0
0
0
0
0
0
0
0
0
0
0
0
0
0
0
0
0
0
0
0
0
0
0
0
0
0
0
0
0
0
0
0
0
0
0
0
0
0
0
0
0
0
0
0
0
0
0
0
0
0
0
0
0
0
0
0
0
0
0
0
0
0
0
0
0
0
0
0
0
0
0
0
0
0
0
0
1
1
1
1
1
1
1
1
1
1
1
1
1
1
1
1
1
1
1
1
1
1
1
0
0
0
0
0
0
0
0
0
0
0
0
0
0
0
0
0
0
0
0
0
0
1
0
0
0
0
0
0
0
0
0
0
0
0
0
0
0
1
1
0
1
0
0
1
1
1
1
1
0
1
0
1
1
0
1
1
0
0
0
0
1
1
1
0
0
0
0
0
1
1
1
0
1
1
1
0
0
1
1
1
0
1
1
1
1
1
1
1
1
0
1
1
0
1
1
0
1
0
1
1
1
1
1
1
1
1
1
1
1
1
0
1
1
1
0
1
1
1
1
1
0
0
0
1
1
1
1
1
1
0
0
0
0
0
0
0
0
0
0
0
0
0
0
0
0
0
1
1
1
1
1
1
1
1
1
1
1
1
0
1
1
0
1
1
0
1
1
0
0
0
0
0
1
1
1
1
0
1
1
0
1
1
1
1
1
1
0
1
1
1
0
1
1
1
1
0
1
1
0
1
1
1
0
1
1
1
1
1
0
0
0
0
0
1
0
0
0
1
1
0
1
1
1
1
1
1
1
1
1
0
0
0
0
0
0
0
1
1
0
1
0
1
1
1
1
1
1
1
1
1
1
0
0
0
1
1
0
1
0
0
0
0
1
1
1
1
1
1
1
0
0
1
1
1
1
1
1
0
1
1
0
0
0
0
0
0
0
0
0
0
0
1
0
0
1
1
0
0
0
0
1
1
1
1
0
0
0
0
0
0
0
1
1
1
0
1
1
1
1
1
0
0
0
0
0
0
0
)


961
(
1
1
1
1
1
1
1
1
1
1
1
1
1
0
1
1
1
1
1
1
1
1
1
1
1
1
1
0
1
1
1
1
1
1
1
1
1
1
0
1
1
1
0
0
1
1
1
1
1
1
0
1
1
1
1
1
1
1
1
1
1
1
1
1
1
1
1
1
1
1
1
1
0
1
1
1
1
1
1
1
1
1
1
1
1
1
0
0
0
0
0
0
1
1
1
0
0
0
0
1
1
1
1
1
1
1
1
1
1
1
1
1
1
1
1
1
1
1
1
1
1
1
1
1
1
1
1
0
1
1
1
1
1
1
1
1
1
1
1
1
1
1
1
1
1
1
1
1
1
1
1
0
1
1
1
1
1
1
1
1
1
1
1
1
1
1
1
1
1
0
0
0
1
1
1
1
0
1
1
1
1
1
1
1
1
1
1
1
1
1
1
1
1
1
1
1
1
1
1
1
1
1
1
1
1
1
1
1
1
1
1
1
1
1
1
1
1
1
1
1
1
1
1
1
1
1
1
1
1
1
1
1
1
1
1
1
1
1
1
1
1
1
1
1
1
1
1
1
1
1
1
1
1
1
1
1
1
1
1
1
1
1
1
1
1
1
1
1
1
1
1
1
1
1
1
1
1
1
1
1
1
1
1
1
1
1
1
1
1
1
1
1
1
1
1
1
1
1
1
1
1
1
1
1
1
1
1
1
1
1
1
1
1
1
1
1
1
1
1
1
1
1
1
1
1
1
1
1
1
1
1
1
1
1
1
1
1
1
1
1
1
1
1
1
1
1
1
1
1
1
1
1
1
1
1
1
1
1
1
1
1
1
1
1
1
1
1
1
1
1
1
1
1
1
1
1
1
1
1
1
1
1
1
1
1
1
1
1
1
1
1
1
1
1
1
1
1
1
1
1
1
1
1
1
1
1
1
1
1
1
1
1
1
1
1
1
1
1
1
1
1
1
1
1
1
1
1
1
1
1
1
1
1
1
1
1
1
1
1
1
1
1
1
1
1
1
1
1
1
1
1
1
1
1
1
1
1
1
1
1
1
1
1
1
1
1
1
1
1
1
1
1
1
1
1
1
1
1
1
1
1
1
1
1
1
1
1
1
1
1
1
1
1
1
1
1
1
1
1
1
1
1
1
1
1
1
1
1
1
1
1
1
1
1
1
1
1
1
1
1
1
1
1
1
1
1
1
1
1
1
1
1
1
1
1
1
1
1
1
1
1
1
1
1
1
1
1
1
1
1
1
1
1
1
1
1
1
1
1
1
1
1
1
1
1
1
1
1
1
1
1
1
1
1
1
1
1
1
1
1
1
1
1
1
1
1
1
1
1
1
1
1
1
1
1
1
1
1
1
1
1
1
1
1
1
1
1
1
1
1
1
1
1
1
1
1
1
1
1
1
1
1
1
1
1
1
1
1
1
1
1
1
1
1
1
1
1
1
1
1
1
1
1
1
1
1
1
1
1
1
1
1
1
1
1
1
1
1
1
1
1
1
1
1
1
1
1
1
1
1
1
1
1
1
1
1
1
1
1
1
1
1
1
1
1
1
1
1
1
1
1
1
1
1
1
1
1
1
1
1
1
1
1
1
1
1
1
1
1
1
1
1
1
1
1
1
1
1
1
1
1
1
1
1
1
1
1
1
1
1
1
1
1
1
1
1
1
1
1
1
1
1
1
1
1
1
1
1
1
1
1
1
1
1
1
1
1
1
1
1
1
1
1
1
1
1
1
1
1
1
1
1
1
1
1
1
1
1
1
1
1
1
1
1
1
1
1
1
1
1
1
1
1
1
1
1
1
1
1
1
1
1
1
1
1
1
1
1
1
1
1
1
1
1
1
1
1
1
1
1
1
1
1
1
1
1
1
1
1
1
1
0
1
1
1
1
0
1
0
1
1
1
0
0
0
0
0
0
0
0
0
1
1
0
1
1
0
1
1
1
1
1
1
0
0
0
0
0
0
0
1
1
0
1
0
1
1
1
1
1
1
1
1
1
1
0
0
0
1
1
1
1
1
0
1
0
0
0
1
1
1
1
1
0
0
1
1
1
1
1
1
1
1
1
0
0
0
0
0
0
0
1
1
0
1
1
0
0
0
1
1
0
0
0
1
1
1
1
0
0
0
0
0
0
0
1
1
1
0
1
1
1
1
1
1
1
0
0
0
0
0
)


961
(
1
1
1
1
1
1
1
1
1
1
1
1
1
1
1
1
1
1
1
1
1
1
1
1
1
1
1
0
1
1
1
1
0
0
1
1
1
1
0
1
1
1
0
1
1
1
1
1
1
1
0
1
1
1
1
1
1
1
1
1
1
1
1
1
0
1
1
1
1
1
1
1
0
1
1
1
1
1
0
1
1
1
1
1
1
1
0
0
1
0
0
0
1
1
1
0
0
0
0
1
1
1
1
1
1
1
1
1
1
1
1
1
1
1
1
1
1
1
1
1
1
1
1
1
1
1
1
1
0
1
1
1
1
1
0
1
1
1
1
1
1
1
1
1
1
1
1
1
1
1
1
1
1
1
0
0
1
1
1
1
1
1
1
1
1
1
1
1
1
0
0
0
1
1
1
1
1
1
1
1
1
1
1
1
1
1
1
1
1
1
1
1
1
1
1
1
1
1
1
1
1
1
1
1
1
1
1
1
1
1
1
1
1
1
1
1
1
1
1
1
1
1
1
1
1
1
1
1
1
1
1
1
1
1
1
1
1
1
1
1
1
1
1
1
1
1
1
1
1
1
1
1
1
1
1
1
1
1
1
1
1
1
1
1
1
1
1
1
1
1
1
1
1
1
1
1
1
1
1
1
1
1
1
1
1
1
1
1
1
1
1
1
1
1
1
1
1
1
1
1
1
1
1
1
1
1
1
1
1
1
1
1
1
1
1
1
1
1
1
1
1
1
1
1
1
1
1
1
1
1
1
1
1
1
1
1
1
1
1
1
1
1
1
1
1
1
1
1
1
1
1
1
1
1
1
1
1
1
1
1
1
1
1
1
1
1
1
1
1
1
1
1
1
1
1
1
1
1
1
1
1
1
1
1
1
1
1
1
1
1
1
1
1
1
1
1
1
1
1
1
1
1
1
1
1
1
1
1
1
1
1
1
1
1
1
1
1
1
1
1
1
1
1
1
1
1
1
1
1
1
1
1
1
1
1
1
1
1
1
1
1
1
1
1
1
1
1
1
1
1
1
1
1
1
1
1
1
1
1
1
1
1
1
1
1
1
1
1
1
1
1
1
1
1
1
1
1
1
1
1
1
1
1
1
1
1
1
1
1
1
1
1
1
1
1
1
1
1
1
1
1
1
1
1
1
1
1
1
1
1
1
1
1
1
1
1
1
1
1
1
1
1
1
1
1
1
1
1
1
1
1
1
1
1
1
1
1
1
1
1
1
1
1
1
1
1
1
1
1
1
1
1
1
1
1
1
1
1
1
1
1
1
1
1
1
1
1
1
1
1
1
1
1
1
1
1
1
1
1
1
1
1
1
1
1
1
1
1
1
1
1
1
1
1
1
1
1
1
1
1
1
1
1
1
1
1
1
1
1
1
1
1
1
1
1
1
1
1
1
1
1
1
1
1
1
1
1
1
1
1
1
1
1
1
1
1
1
1
1
1
1
1
1
1
1
1
1
1
1
1
1
1
1
1
1
1
1
1
1
1
1
1
1
1
1
1
1
1
1
1
1
1
1
1
1
1
1
1
1
1
1
1
1
1
1
1
1
1
1
1
1
1
1
1
1
1
1
1
1
1
1
1
1
1
1
1
1
1
1
1
1
1
1
1
1
1
1
1
1
1
1
1
1
1
1
1
1
1
1
1
1
1
1
1
1
1
1
1
1
1
1
1
1
1
1
1
1
1
1
1
1
1
1
1
1
1
1
1
1
1
1
1
1
1
1
1
1
1
1
1
1
1
1
1
1
1
1
1
1
1
1
1
1
1
1
1
1
1
1
1
1
1
1
1
1
1
1
1
1
1
1
1
1
1
1
1
1
1
1
1
1
1
1
1
1
1
1
1
1
1
1
1
1
1
1
1
1
1
1
1
1
0
1
1
0
1
0
0
0
1
0
0
0
0
0
0
0
0
0
0
0
0
0
0
1
1
0
1
1
1
1
1
1
0
0
0
0
0
0
0
1
1
1
1
0
1
1
1
1
1
1
1
1
1
1
0
0
0
1
1
1
1
1
1
1
0
0
0
1
1
1
1
1
1
0
1
1
1
1
1
1
1
1
1
0
0
0
0
0
0
0
1
1
0
1
1
0
0
0
0
1
1
1
0
1
1
1
1
0
0
0
0
0
0
0
0
0
1
0
1
1
1
1
1
1
1
0
0
0
0
0
)


961
(
1
1
1
1
1
1
1
1
1
1
1
1
1
1
0
1
1
1
1
1
1
1
1
1
1
1
1
0
1
1
1
1
0
0
1
1
1
1
0
1
1
1
1
1
1
1
1
1
1
1
1
1
1
1
1
1
1
1
1
1
1
1
1
1
0
1
1
1
1
1
1
1
0
1
1
1
1
1
0
1
1
1
1
1
1
1
1
1
1
0
1
0
1
1
1
0
1
0
0
1
0
1
1
1
1
1
1
1
1
1
1
1
1
1
1
1
1
1
1
1
1
1
1
1
1
1
1
1
1
1
1
1
0
0
0
0
1
0
1
1
1
1
1
1
1
1
1
1
1
1
1
1
1
0
0
0
1
0
0
1
1
1
1
1
1
1
1
1
1
1
1
1
1
1
1
1
1
1
1
1
1
1
1
1
1
1
1
1
1
1
1
1
1
1
1
1
1
1
1
1
1
1
1
1
1
1
1
1
1
1
1
1
1
1
1
1
1
1
1
1
1
1
1
1
1
1
1
1
1
1
1
1
1
1
1
1
1
1
1
1
1
1
1
1
1
1
1
1
1
1
1
1
1
1
1
1
1
1
1
1
1
1
1
1
1
1
1
1
1
1
1
1
1
1
1
1
1
1
1
1
1
1
1
1
1
1
1
1
1
1
1
1
1
1
1
1
1
1
1
1
1
1
1
1
1
1
1
1
1
1
1
1
1
1
1
1
1
1
1
1
1
1
1
1
1
1
1
1
1
1
1
1
1
1
1
1
1
1
1
1
1
1
1
1
1
1
1
1
1
1
1
1
1
1
1
1
1
1
1
1
1
1
1
1
1
1
1
1
1
1
1
1
1
1
1
1
1
1
1
1
1
1
1
1
1
1
1
1
1
1
1
1
1
1
1
1
1
1
1
1
1
1
1
1
1
1
1
1
1
1
1
1
1
1
1
1
1
1
1
1
1
1
1
1
1
1
1
1
1
1
1
1
1
1
1
1
1
1
1
1
1
1
1
1
1
1
1
1
1
1
1
1
1
1
1
1
1
1
1
1
1
1
1
1
1
1
1
1
1
1
1
1
1
1
1
1
1
1
1
1
1
1
1
1
1
1
1
1
1
1
1
1
1
1
1
1
1
1
1
1
1
1
1
1
1
1
1
1
1
1
1
1
1
1
1
1
1
1
1
1
1
1
1
1
1
1
1
1
1
1
1
1
1
1
1
1
1
1
1
1
1
1
1
1
1
1
1
1
1
1
1
1
1
1
1
1
1
1
1
1
1
1
1
1
1
1
1
1
1
1
1
1
1
1
1
1
1
1
1
1
1
1
1
1
1
1
1
1
1
1
1
1
1
1
1
1
1
1
1
1
1
1
1
1
1
1
1
1
1
1
1
1
1
1
1
1
1
1
1
1
1
1
1
1
1
1
1
1
1
1
1
1
1
1
1
1
1
1
1
1
1
1
1
1
1
1
1
1
1
1
1
1
1
1
1
1
1
1
1
1
1
1
1
1
1
1
1
1
1
1
1
1
1
1
1
1
1
1
1
1
1
1
1
1
1
1
1
1
1
1
1
1
1
1
1
1
1
1
1
1
1
1
1
1
1
1
1
1
1
1
1
1
1
1
1
1
1
1
1
1
1
1
1
1
1
1
1
1
1
1
1
1
1
1
1
1
1
1
1
1
1
1
1
1
1
1
1
1
1
1
1
1
1
1
1
1
1
1
1
1
1
1
1
1
1
1
1
1
1
1
1
1
1
1
1
1
1
1
1
1
1
1
1
1
1
1
1
1
1
1
1
1
1
1
1
1
1
1
1
1
1
1
1
1
1
1
1
1
1
1
1
1
1
1
1
1
1
1
1
1
1
1
1
1
1
1
1
1
1
1
0
0
1
0
0
1
0
0
0
0
0
0
0
0
0
0
0
0
0
0
0
0
0
0
1
1
0
1
0
1
1
1
1
0
0
0
1
0
0
0
1
1
1
1
0
0
1
0
1
1
1
1
1
1
1
1
0
0
1
0
1
1
1
1
1
0
0
0
1
1
1
1
1
1
0
1
1
1
1
1
1
1
1
1
0
0
0
0
0
0
0
1
1
0
1
1
1
0
0
0
1
1
1
0
0
1
1
1
0
0
0
0
0
0
1
0
0
0
0
1
1
1
1
1
1
1
0
0
0
0
0
)


961
(
1
1
1
1
1
1
1
1
1
1
1
1
1
1
0
1
1
1
1
1
0
1
1
1
1
1
1
1
1
1
1
1
0
0
1
1
1
1
0
1
1
1
1
1
1
1
1
1
1
1
1
1
1
1
1
1
1
1
1
0
1
1
1
1
0
0
1
1
1
1
1
1
1
1
1
1
1
1
1
1
0
0
1
1
1
1
1
1
1
1
1
1
1
1
1
1
1
1
1
1
1
1
1
1
1
1
1
1
1
1
1
1
1
1
1
1
1
1
1
1
1
1
1
1
1
1
1
1
1
1
1
1
0
0
0
0
0
0
1
1
1
1
1
1
1
1
1
1
1
1
1
1
1
0
0
0
0
0
0
1
1
1
1
1
1
1
1
1
1
1
1
1
1
1
1
1
1
1
1
1
1
1
1
1
1
1
1
1
0
0
0
1
0
0
0
1
1
1
0
0
0
0
1
1
1
1
1
1
1
1
1
1
1
1
1
1
1
1
1
1
1
1
1
1
1
1
1
1
1
1
1
1
1
1
1
1
1
1
1
1
1
1
1
1
1
1
1
1
1
1
1
1
1
1
1
1
1
1
1
1
1
1
1
1
1
1
1
1
1
1
1
1
1
1
1
1
1
1
1
1
1
1
1
1
1
1
1
1
1
1
1
1
1
1
1
1
1
1
1
1
1
1
1
1
1
1
1
1
1
1
1
1
1
1
1
1
1
1
1
1
1
1
1
1
1
1
1
1
1
1
1
1
1
1
1
1
1
1
1
1
1
1
1
1
1
1
1
1
1
1
1
1
1
1
1
1
1
1
1
1
1
1
1
1
1
1
1
1
1
1
1
1
1
1
1
1
1
1
1
1
1
1
1
1
1
1
1
1
1
1
1
1
1
1
1
1
1
1
1
1
1
1
1
1
1
1
1
1
1
1
1
1
1
1
1
1
1
1
1
1
1
1
1
1
1
1
1
1
1
1
1
1
1
1
1
1
1
1
1
1
1
1
1
1
1
1
1
1
1
1
1
1
1
1
1
1
1
1
1
0
1
1
1
1
1
1
1
1
1
1
1
1
1
1
1
1
1
1
1
1
1
1
1
1
1
1
1
1
1
1
1
1
1
1
1
1
1
1
1
1
1
1
1
1
1
1
1
1
1
1
1
1
1
1
1
1
1
1
1
1
1
1
1
1
1
1
1
1
1
1
1
1
1
1
1
1
1
1
1
1
1
1
1
1
1
1
1
1
1
1
1
1
1
1
1
1
1
1
1
1
1
1
1
1
1
1
1
1
1
1
1
1
1
1
1
1
1
1
1
1
1
1
1
1
1
1
1
1
1
1
1
1
1
1
1
1
1
1
1
1
1
1
1
1
1
1
1
1
1
1
1
1
1
1
1
1
1
1
1
1
1
1
1
1
1
1
1
1
1
1
1
1
1
1
1
1
1
1
1
1
1
1
1
1
1
1
1
1
1
1
1
1
1
1
1
1
1
1
1
1
1
1
1
1
1
1
1
1
1
1
1
1
1
1
1
1
1
1
1
1
1
1
1
1
1
1
1
1
1
1
1
1
1
1
1
1
1
1
1
1
1
1
1
1
1
1
1
1
1
1
1
1
1
1
1
1
1
1
1
1
1
1
1
1
1
1
1
1
1
1
1
1
1
1
1
1
1
1
1
1
1
1
1
1
1
1
1
1
1
1
1
1
1
1
1
1
1
1
1
1
1
1
1
1
1
1
1
1
1
1
1
1
1
1
1
1
1
1
1
1
1
1
1
1
1
1
1
1
1
1
1
1
1
1
1
1
1
1
1
1
1
1
1
1
1
1
1
1
1
1
1
1
1
1
1
1
1
1
1
1
1
1
1
1
1
1
1
1
1
1
0
0
1
0
0
1
0
0
0
0
0
0
0
0
0
0
0
0
0
0
0
0
0
0
1
1
0
0
0
1
1
1
1
0
0
0
1
1
0
0
1
1
1
1
1
0
1
0
1
1
1
1
1
1
1
1
1
1
1
0
1
1
1
1
1
1
0
0
1
1
1
1
1
1
0
1
0
1
1
1
1
1
1
0
0
0
1
0
0
0
0
1
1
0
1
1
1
0
0
0
1
1
1
0
0
1
1
1
0
0
0
0
0
1
1
0
0
0
0
1
1
1
1
1
1
1
0
0
0
0
0
)

)

sunViewCoeff: 
5
(

675
(
0
501.05251
0
0
501.05251
501.05251
501.05251
253.73543
0
501.05251
368.39113
501.05251
501.05251
0
501.05251
501.05251
354.0909
501.05251
0
501.05251
499.03482
409.71908
373.91298
501.05251
0
501.05251
490.95593
0
491.00501
501.05251
143.11311
501.05251
129.62389
435.8283
0
501.05251
501.05251
90.088942
323.07511
0
0
0
0
0
0
0
0
0
0
0
0
0
0
0
0
0
0
0
0
0
0
0
0
0
0
0
0
0
0
0
0
0
0
0
0
0
0
0
0
0
0
0
0
0
0
0
0
0
0
0
0
501.05251
0
0
501.05251
501.05251
0
0
0
0
0
501.05251
501.05251
0
0
0
0
0
0
0
0
0
0
0
0
0
0
0
501.05251
501.05251
0
0
0
0
0
0
0
0
0
0
0
0
501.05251
501.05251
501.05251
501.05251
501.05251
0
501.05251
501.05251
0
501.05251
501.05251
0
501.05251
501.05251
0
501.05251
501.05251
0
501.05251
0
501.05251
501.05251
501.05251
501.05251
501.05251
501.05251
501.05251
501.05251
0
0
0
501.05251
501.05251
501.05251
501.05251
501.05251
501.05251
501.05251
501.05251
501.05251
501.05251
501.05251
501.05251
501.05251
501.05251
501.05251
0
0
0
0
501.05251
501.05251
501.05251
501.05251
0
0
0
0
0
0
501.05251
501.05251
501.05251
0
0
0
0
0
501.05251
501.05251
501.05251
0
0
501.05251
501.05251
501.05251
0
501.05251
501.05251
501.05251
0
501.05251
501.05251
501.05251
501.05251
501.05251
501.05251
0
0
501.05251
501.05251
501.05251
0
501.05251
501.05251
501.05251
501.05251
501.05251
501.05251
501.05251
501.05251
501.05251
501.05251
501.05251
501.05251
501.05251
501.05251
501.05251
501.05251
501.05251
501.05251
501.05251
501.05251
501.05251
501.05251
501.05251
501.05251
501.05251
501.05251
501.05251
501.05251
501.05251
501.05251
501.05251
0
0
0
0
0
0
0
0
0
0
0
0
0
0
0
0
0
0
0
0
0
0
0
0
0
0
0
0
0
0
0
0
0
0
0
0
0
0
0
0
0
0
0
0
0
0
0
0
0
0
0
0
0
0
0
0
0
0
0
0
0
0
0
0
0
0
0
0
0
0
0
0
0
0
0
0
0
0
0
0
0
0
0
0
0
0
0
0
0
0
0
0
0
0
0
0
0
0
0
0
0
0
0
0
0
0
0
0
0
0
0
0
0
0
0
0
0
0
0
0
0
0
0
0
0
0
0
0
0
0
0
0
0
0
0
0
0
0
0
0
0
0
0
0
0
0
0
0
0
0
0
0
0
0
0
0
0
0
0
0
0
0
0
0
0
0
0
0
0
0
0
501.05251
501.05251
501.05251
501.05251
501.05251
501.05251
501.05251
501.05251
501.05251
501.05251
501.05251
501.05251
501.05251
501.05251
501.05251
501.05251
501.05251
501.05251
501.05251
501.05251
501.05251
501.05251
501.05251
0
0
0
0
0
0
0
0
0
0
0
0
0
0
0
0
0
0
0
0
0
0
501.05251
0
0
0
0
0
0
0
0
0
0
0
0
0
0
0
501.05251
501.05251
0
501.05251
0
0
501.05251
501.05251
501.05251
501.05251
501.05251
0
501.05251
0
501.05251
501.05251
0
501.05251
501.05251
0
0
0
0
501.05251
501.05251
501.05251
0
0
0
0
0
501.05251
501.05251
501.05251
0
501.05251
501.05251
501.05251
0
0
501.05251
501.05251
501.05251
0
501.05251
501.05251
501.05251
501.05251
501.05251
501.05251
501.05251
501.05251
0
501.05251
501.05251
0
501.05251
501.05251
0
501.05251
0
501.05251
501.05251
501.05251
501.05251
501.05251
501.05251
501.05251
501.05251
501.05251
501.05251
501.05251
501.05251
0
501.05251
501.05251
501.05251
0
501.05251
501.05251
501.05251
501.05251
501.05251
0
0
0
501.05251
501.05251
501.05251
501.05251
501.05251
501.05251
0
0
0
0
0
0
0
0
0
0
0
0
0
0
0
0
0
501.05251
501.05251
501.05251
501.05251
501.05251
501.05251
501.05251
501.05251
501.05251
501.05251
501.05251
501.05251
0
501.05251
501.05251
0
501.05251
501.05251
0
501.05251
501.05251
0
0
0
0
0
501.05251
501.05251
501.05251
501.05251
0
501.05251
501.05251
0
501.05251
501.05251
501.05251
501.05251
501.05251
501.05251
0
501.05251
501.05251
501.05251
0
501.05251
501.05251
501.05251
501.05251
1.6301002
397.73755
66.834183
10.914774
48.67937
308.40439
52.126813
132.33119
86.570661
0
0
9.5708985
141.01538
527.06242
65.019657
85.996471
229.93427
0
0
0
0
52.561756
313.61057
259.06168
186.79298
0
0
26.786788
0
)


675
(
284.54856
284.54856
284.54856
284.54856
284.54856
284.54856
284.54856
190.08859
284.54856
284.54856
284.54856
284.54856
284.54856
284.54856
284.54856
284.54856
172.69263
284.54856
284.54856
284.54856
280.33731
192.95996
195.14247
284.54856
284.54856
284.54856
283.38896
284.54856
284.54856
284.54856
260.25692
284.54856
99.576545
284.54856
284.54856
284.54856
284.54856
248.43828
150.69851
284.54856
284.54856
284.54856
284.54856
284.54856
284.54856
23.719504
23.719504
23.719504
23.719504
23.719504
23.719504
23.719504
23.719504
23.719504
23.719504
23.719504
23.719504
23.719504
23.719504
23.719504
23.719504
23.719504
23.719504
23.719504
23.719504
23.719504
23.719504
23.719504
23.719504
23.719504
23.719504
23.719504
23.719504
23.719504
23.719504
23.719504
23.719504
23.719504
23.719504
23.719504
23.719504
23.719504
23.719504
23.719504
23.719504
23.719504
23.719504
23.719504
23.719504
23.719504
23.719504
284.54856
23.719504
23.719504
284.54856
284.54856
23.719504
23.719504
23.719504
23.719504
23.719504
284.54856
284.54856
23.719504
23.719504
23.719504
23.719504
23.719504
23.719504
23.719504
23.719504
23.719504
23.719504
23.719504
23.719504
23.719504
23.719504
23.719504
284.54856
284.54856
23.719504
23.719504
23.719504
23.719504
23.719504
23.719504
23.719504
23.719504
23.719504
23.719504
23.719504
23.719504
284.54856
284.54856
284.54856
284.54856
284.54856
23.719504
284.54856
284.54856
23.719504
284.54856
284.54856
23.719504
284.54856
284.54856
23.719504
284.54856
284.54856
23.719504
284.54856
23.719504
284.54856
284.54856
284.54856
284.54856
284.54856
284.54856
284.54856
284.54856
23.719504
23.719504
23.719504
284.54856
284.54856
284.54856
284.54856
284.54856
284.54856
284.54856
284.54856
284.54856
284.54856
284.54856
284.54856
284.54856
284.54856
284.54856
23.719504
23.719504
23.719504
23.719504
284.54856
284.54856
284.54856
284.54856
23.719504
23.719504
23.719504
23.719504
23.719504
23.719504
284.54856
284.54856
284.54856
23.719504
23.719504
23.719504
23.719504
23.719504
284.54856
284.54856
284.54856
23.719504
23.719504
284.54856
284.54856
284.54856
23.719504
284.54856
284.54856
284.54856
23.719504
284.54856
284.54856
284.54856
284.54856
284.54856
284.54856
23.719504
23.719504
284.54856
284.54856
284.54856
23.719504
284.54856
284.54856
284.54856
284.54856
284.54856
284.54856
284.54856
284.54856
284.54856
284.54856
284.54856
284.54856
284.54856
284.54856
284.54856
284.54856
284.54856
284.54856
284.54856
284.54856
284.54856
284.54856
284.54856
284.54856
284.54856
284.54856
284.54856
284.54856
284.54856
284.54856
284.54856
23.719504
23.719504
23.719504
23.719504
23.719504
23.719504
23.719504
23.719504
23.719504
23.719504
23.719504
23.719504
23.719504
23.719504
23.719504
23.719504
23.719504
23.719504
23.719504
23.719504
23.719504
23.719504
23.719504
23.719504
23.719504
23.719504
23.719504
23.719504
23.719504
23.719504
23.719504
23.719504
23.719504
23.719504
23.719504
23.719504
23.719504
23.719504
23.719504
23.719504
23.719504
23.719504
23.719504
23.719504
23.719504
23.719504
23.719504
23.719504
23.719504
23.719504
23.719504
23.719504
23.719504
23.719504
23.719504
23.719504
23.719504
23.719504
23.719504
23.719504
23.719504
23.719504
23.719504
23.719504
23.719504
23.719504
23.719504
23.719504
23.719504
23.719504
23.719504
23.719504
23.719504
23.719504
23.719504
23.719504
23.719504
23.719504
23.719504
23.719504
23.719504
23.719504
23.719504
23.719504
23.719504
23.719504
23.719504
23.719504
23.719504
23.719504
23.719504
23.719504
23.719504
23.719504
23.719504
23.719504
23.719504
23.719504
23.719504
23.719504
23.719504
23.719504
23.719504
23.719504
23.719504
23.719504
23.719504
23.719504
23.719504
23.719504
23.719504
23.719504
23.719504
23.719504
23.719504
23.719504
23.719504
23.719504
23.719504
23.719504
23.719504
23.719504
23.719504
23.719504
23.719504
23.719504
23.719504
23.719504
23.719504
23.719504
23.719504
23.719504
23.719504
23.719504
23.719504
23.719504
23.719504
23.719504
23.719504
23.719504
23.719504
23.719504
23.719504
23.719504
23.719504
23.719504
23.719504
23.719504
23.719504
23.719504
23.719504
23.719504
23.719504
23.719504
23.719504
23.719504
23.719504
23.719504
23.719504
23.719504
23.719504
23.719504
23.719504
23.719504
23.719504
23.719504
23.719504
23.719504
23.719504
23.719504
23.719504
284.54856
284.54856
284.54856
284.54856
284.54856
284.54856
284.54856
284.54856
284.54856
284.54856
284.54856
284.54856
284.54856
284.54856
284.54856
284.54856
284.54856
284.54856
284.54856
284.54856
284.54856
284.54856
284.54856
23.719504
23.719504
23.719504
23.719504
23.719504
23.719504
23.719504
23.719504
23.719504
23.719504
23.719504
23.719504
23.719504
23.719504
23.719504
23.719504
23.719504
23.719504
23.719504
23.719504
23.719504
23.719504
284.54856
23.719504
23.719504
23.719504
23.719504
23.719504
23.719504
23.719504
23.719504
23.719504
23.719504
23.719504
23.719504
23.719504
23.719504
23.719504
284.54856
284.54856
23.719504
284.54856
23.719504
23.719504
284.54856
284.54856
284.54856
284.54856
284.54856
23.719504
284.54856
23.719504
284.54856
284.54856
23.719504
284.54856
284.54856
23.719504
23.719504
23.719504
23.719504
284.54856
284.54856
284.54856
23.719504
23.719504
23.719504
23.719504
23.719504
284.54856
284.54856
284.54856
23.719504
284.54856
284.54856
284.54856
23.719504
23.719504
284.54856
284.54856
284.54856
23.719504
284.54856
284.54856
284.54856
284.54856
284.54856
284.54856
284.54856
284.54856
23.719504
284.54856
284.54856
23.719504
284.54856
284.54856
23.719504
284.54856
23.719504
284.54856
284.54856
284.54856
284.54856
284.54856
284.54856
284.54856
284.54856
284.54856
284.54856
284.54856
284.54856
23.719504
284.54856
284.54856
284.54856
23.719504
284.54856
284.54856
284.54856
284.54856
284.54856
23.719504
23.719504
23.719504
284.54856
284.54856
284.54856
284.54856
284.54856
284.54856
23.719504
23.719504
23.719504
23.719504
23.719504
23.719504
23.719504
23.719504
23.719504
23.719504
23.719504
23.719504
23.719504
23.719504
23.719504
23.719504
23.719504
284.54856
284.54856
284.54856
284.54856
284.54856
284.54856
284.54856
284.54856
284.54856
284.54856
284.54856
284.54856
23.719504
284.54856
284.54856
23.719504
284.54856
284.54856
23.719504
284.54856
284.54856
23.719504
23.719504
23.719504
23.719504
23.719504
284.54856
284.54856
284.54856
284.54856
23.719504
284.54856
284.54856
23.719504
284.54856
284.54856
284.54856
284.54856
284.54856
284.54856
23.719504
284.54856
284.54856
284.54856
23.719504
284.54856
284.54856
284.54856
284.54856
55.775971
173.6268
0
75.11546
19.448458
169.36368
2.2329929
66.08863
29.826368
0
0
2.0128443
40.556882
330.59411
16.955207
0
162.73091
0
0
0
0
93.006479
116.21223
178.43359
167.09939
20.712704
9.4527545
93.239483
0
)


675
(
247.54772
247.54772
247.54772
247.54772
247.54772
247.54772
247.54772
189.13686
247.54772
247.54772
247.54772
247.54772
247.54772
247.54772
247.54772
247.54772
86.410471
247.54772
240.36479
247.54772
245.46696
156.06805
247.54772
247.54772
247.54772
247.54772
247.54772
247.54772
247.54772
247.54772
168.7593
247.54772
173.45993
247.54772
247.54772
247.54772
247.54772
144.64305
119.13553
247.54772
247.54772
247.54772
247.54772
247.54772
247.54772
83.269254
83.269254
83.269254
83.269254
83.269254
83.269254
83.269254
83.269254
83.269254
83.269254
83.269254
83.269254
83.269254
83.269254
83.269254
83.269254
83.269254
83.269254
83.269254
83.269254
83.269254
83.269254
83.269254
83.269254
83.269254
83.269254
83.269254
83.269254
83.269254
83.269254
83.269254
83.269254
83.269254
83.269254
83.269254
83.269254
83.269254
83.269254
83.269254
83.269254
83.269254
83.269254
83.269254
83.269254
83.269254
83.269254
247.54772
83.269254
83.269254
247.54772
247.54772
83.269254
83.269254
83.269254
83.269254
83.269254
247.54772
247.54772
83.269254
83.269254
83.269254
83.269254
83.269254
83.269254
83.269254
83.269254
83.269254
83.269254
83.269254
83.269254
83.269254
83.269254
83.269254
247.54772
247.54772
83.269254
83.269254
83.269254
83.269254
83.269254
83.269254
83.269254
83.269254
83.269254
83.269254
83.269254
83.269254
247.54772
247.54772
247.54772
247.54772
247.54772
83.269254
247.54772
247.54772
83.269254
247.54772
247.54772
83.269254
247.54772
247.54772
83.269254
247.54772
247.54772
83.269254
247.54772
83.269254
247.54772
247.54772
247.54772
247.54772
247.54772
247.54772
247.54772
247.54772
83.269254
83.269254
83.269254
247.54772
247.54772
247.54772
247.54772
247.54772
247.54772
247.54772
247.54772
247.54772
247.54772
247.54772
247.54772
247.54772
247.54772
247.54772
83.269254
83.269254
83.269254
83.269254
247.54772
247.54772
247.54772
247.54772
83.269254
83.269254
83.269254
83.269254
83.269254
83.269254
247.54772
247.54772
247.54772
83.269254
83.269254
83.269254
83.269254
83.269254
247.54772
247.54772
247.54772
83.269254
83.269254
247.54772
247.54772
247.54772
83.269254
247.54772
247.54772
247.54772
83.269254
247.54772
247.54772
247.54772
247.54772
247.54772
247.54772
83.269254
83.269254
247.54772
247.54772
247.54772
83.269254
247.54772
247.54772
247.54772
247.54772
247.54772
247.54772
247.54772
247.54772
247.54772
247.54772
247.54772
247.54772
247.54772
247.54772
247.54772
247.54772
247.54772
247.54772
247.54772
247.54772
247.54772
247.54772
247.54772
247.54772
247.54772
247.54772
247.54772
247.54772
247.54772
247.54772
247.54772
83.269254
83.269254
83.269254
83.269254
83.269254
83.269254
83.269254
83.269254
83.269254
83.269254
83.269254
83.269254
83.269254
83.269254
83.269254
83.269254
83.269254
83.269254
83.269254
83.269254
83.269254
83.269254
83.269254
83.269254
83.269254
83.269254
83.269254
83.269254
83.269254
83.269254
83.269254
83.269254
83.269254
83.269254
83.269254
83.269254
83.269254
83.269254
83.269254
83.269254
83.269254
83.269254
83.269254
83.269254
83.269254
83.269254
83.269254
83.269254
83.269254
83.269254
83.269254
83.269254
83.269254
83.269254
83.269254
83.269254
83.269254
83.269254
83.269254
83.269254
83.269254
83.269254
83.269254
83.269254
83.269254
83.269254
83.269254
83.269254
83.269254
83.269254
83.269254
83.269254
83.269254
83.269254
83.269254
83.269254
83.269254
83.269254
83.269254
83.269254
83.269254
83.269254
83.269254
83.269254
83.269254
83.269254
83.269254
83.269254
83.269254
83.269254
83.269254
83.269254
83.269254
83.269254
83.269254
83.269254
83.269254
83.269254
83.269254
83.269254
83.269254
83.269254
83.269254
83.269254
83.269254
83.269254
83.269254
83.269254
83.269254
83.269254
83.269254
83.269254
83.269254
83.269254
83.269254
83.269254
83.269254
83.269254
83.269254
83.269254
83.269254
83.269254
83.269254
83.269254
83.269254
83.269254
83.269254
83.269254
83.269254
83.269254
83.269254
83.269254
83.269254
83.269254
83.269254
83.269254
83.269254
83.269254
83.269254
83.269254
83.269254
83.269254
83.269254
83.269254
83.269254
83.269254
83.269254
83.269254
83.269254
83.269254
83.269254
83.269254
83.269254
83.269254
83.269254
83.269254
83.269254
83.269254
83.269254
83.269254
83.269254
83.269254
83.269254
83.269254
83.269254
83.269254
83.269254
83.269254
83.269254
83.269254
83.269254
247.54772
247.54772
247.54772
247.54772
247.54772
247.54772
247.54772
247.54772
247.54772
247.54772
247.54772
247.54772
247.54772
247.54772
247.54772
247.54772
247.54772
247.54772
247.54772
247.54772
247.54772
247.54772
247.54772
83.269254
83.269254
83.269254
83.269254
83.269254
83.269254
83.269254
83.269254
83.269254
83.269254
83.269254
83.269254
83.269254
83.269254
83.269254
83.269254
83.269254
83.269254
83.269254
83.269254
83.269254
83.269254
247.54772
83.269254
83.269254
83.269254
83.269254
83.269254
83.269254
83.269254
83.269254
83.269254
83.269254
83.269254
83.269254
83.269254
83.269254
83.269254
247.54772
247.54772
83.269254
247.54772
83.269254
83.269254
247.54772
247.54772
247.54772
247.54772
247.54772
83.269254
247.54772
83.269254
247.54772
247.54772
83.269254
247.54772
247.54772
83.269254
83.269254
83.269254
83.269254
247.54772
247.54772
247.54772
83.269254
83.269254
83.269254
83.269254
83.269254
247.54772
247.54772
247.54772
83.269254
247.54772
247.54772
247.54772
83.269254
83.269254
247.54772
247.54772
247.54772
83.269254
247.54772
247.54772
247.54772
247.54772
247.54772
247.54772
247.54772
247.54772
83.269254
247.54772
247.54772
83.269254
247.54772
247.54772
83.269254
247.54772
83.269254
247.54772
247.54772
247.54772
247.54772
247.54772
247.54772
247.54772
247.54772
247.54772
247.54772
247.54772
247.54772
83.269254
247.54772
247.54772
247.54772
83.269254
247.54772
247.54772
247.54772
247.54772
247.54772
83.269254
83.269254
83.269254
247.54772
247.54772
247.54772
247.54772
247.54772
247.54772
83.269254
83.269254
83.269254
83.269254
83.269254
83.269254
83.269254
83.269254
83.269254
83.269254
83.269254
83.269254
83.269254
83.269254
83.269254
83.269254
83.269254
247.54772
247.54772
247.54772
247.54772
247.54772
247.54772
247.54772
247.54772
247.54772
247.54772
247.54772
247.54772
83.269254
247.54772
247.54772
83.269254
247.54772
247.54772
83.269254
247.54772
247.54772
83.269254
83.269254
83.269254
83.269254
83.269254
247.54772
247.54772
247.54772
247.54772
83.269254
247.54772
247.54772
83.269254
247.54772
247.54772
247.54772
247.54772
247.54772
247.54772
83.269254
247.54772
247.54772
247.54772
83.269254
247.54772
247.54772
247.54772
247.54772
103.85498
100.38899
0
123.06086
0
144.98598
0
41.569922
0
0
0
0
3.4157492
302.38876
2.998833
0
165.03967
0
0
12.598457
0
138.10755
33.391799
178.47785
199.58845
12.783343
6.4081715
139.92253
22.147876
)


675
(
218.93877
218.93877
218.93877
218.93877
218.93877
218.93877
218.93877
218.93877
175.5174
218.93877
218.93877
218.93877
218.93877
218.93877
218.93877
218.93877
128.21044
218.93877
201.33922
218.93877
218.93877
88.854607
218.93877
218.93877
218.93877
218.93877
218.93877
218.93877
218.93877
218.93877
145.30863
218.93877
218.93877
218.93877
218.93877
218.93877
218.93877
54.31955
179.92039
218.93877
218.93877
218.93877
218.93877
218.93877
218.93877
136.63498
136.63498
136.63498
136.63498
136.63498
136.63498
136.63498
136.63498
136.63498
136.63498
136.63498
136.63498
136.63498
136.63498
136.63498
136.63498
136.63498
136.63498
136.63498
136.63498
136.63498
136.63498
136.63498
136.63498
136.63498
136.63498
136.63498
136.63498
136.63498
136.63498
136.63498
136.63498
136.63498
136.63498
136.63498
136.63498
136.63498
136.63498
136.63498
136.63498
136.63498
136.63498
136.63498
136.63498
136.63498
136.63498
218.93877
136.63498
136.63498
218.93877
218.93877
136.63498
136.63498
136.63498
136.63498
136.63498
218.93877
218.93877
136.63498
136.63498
136.63498
136.63498
136.63498
136.63498
136.63498
136.63498
136.63498
136.63498
136.63498
136.63498
136.63498
136.63498
136.63498
218.93877
218.93877
136.63498
136.63498
136.63498
136.63498
136.63498
136.63498
136.63498
136.63498
136.63498
136.63498
136.63498
136.63498
218.93877
218.93877
218.93877
218.93877
218.93877
136.63498
218.93877
218.93877
136.63498
218.93877
218.93877
136.63498
218.93877
218.93877
136.63498
218.93877
218.93877
136.63498
218.93877
136.63498
218.93877
218.93877
218.93877
218.93877
218.93877
218.93877
218.93877
218.93877
136.63498
136.63498
136.63498
218.93877
218.93877
218.93877
218.93877
218.93877
218.93877
218.93877
218.93877
218.93877
218.93877
218.93877
218.93877
218.93877
218.93877
218.93877
136.63498
136.63498
136.63498
136.63498
218.93877
218.93877
218.93877
218.93877
136.63498
136.63498
136.63498
136.63498
136.63498
136.63498
218.93877
218.93877
218.93877
136.63498
136.63498
136.63498
136.63498
136.63498
218.93877
218.93877
218.93877
136.63498
136.63498
218.93877
218.93877
218.93877
136.63498
218.93877
218.93877
218.93877
136.63498
218.93877
218.93877
218.93877
218.93877
218.93877
218.93877
136.63498
136.63498
218.93877
218.93877
218.93877
136.63498
218.93877
218.93877
218.93877
218.93877
218.93877
218.93877
218.93877
218.93877
218.93877
218.93877
218.93877
218.93877
218.93877
218.93877
218.93877
218.93877
218.93877
218.93877
218.93877
218.93877
218.93877
218.93877
218.93877
218.93877
218.93877
218.93877
218.93877
218.93877
218.93877
218.93877
218.93877
136.63498
136.63498
136.63498
136.63498
136.63498
136.63498
136.63498
136.63498
136.63498
136.63498
136.63498
136.63498
136.63498
136.63498
136.63498
136.63498
136.63498
136.63498
136.63498
136.63498
136.63498
136.63498
136.63498
136.63498
136.63498
136.63498
136.63498
136.63498
136.63498
136.63498
136.63498
136.63498
136.63498
136.63498
136.63498
136.63498
136.63498
136.63498
136.63498
136.63498
136.63498
136.63498
136.63498
136.63498
136.63498
136.63498
136.63498
136.63498
136.63498
136.63498
136.63498
136.63498
136.63498
136.63498
136.63498
136.63498
136.63498
136.63498
136.63498
136.63498
136.63498
136.63498
136.63498
136.63498
136.63498
136.63498
136.63498
136.63498
136.63498
136.63498
136.63498
136.63498
136.63498
136.63498
136.63498
136.63498
136.63498
136.63498
136.63498
136.63498
136.63498
136.63498
136.63498
136.63498
136.63498
136.63498
136.63498
136.63498
136.63498
136.63498
136.63498
136.63498
136.63498
136.63498
136.63498
136.63498
136.63498
136.63498
136.63498
136.63498
136.63498
136.63498
136.63498
136.63498
136.63498
136.63498
136.63498
136.63498
136.63498
136.63498
136.63498
136.63498
136.63498
136.63498
136.63498
136.63498
136.63498
136.63498
136.63498
136.63498
136.63498
136.63498
136.63498
136.63498
136.63498
136.63498
136.63498
136.63498
136.63498
136.63498
136.63498
136.63498
136.63498
136.63498
136.63498
136.63498
136.63498
136.63498
136.63498
136.63498
136.63498
136.63498
136.63498
136.63498
136.63498
136.63498
136.63498
136.63498
136.63498
136.63498
136.63498
136.63498
136.63498
136.63498
136.63498
136.63498
136.63498
136.63498
136.63498
136.63498
136.63498
136.63498
136.63498
136.63498
136.63498
136.63498
136.63498
136.63498
136.63498
136.63498
136.63498
218.93877
218.93877
218.93877
218.93877
218.93877
218.93877
218.93877
218.93877
218.93877
218.93877
218.93877
218.93877
218.93877
218.93877
218.93877
218.93877
218.93877
218.93877
218.93877
218.93877
218.93877
218.93877
218.93877
136.63498
136.63498
136.63498
136.63498
136.63498
136.63498
136.63498
136.63498
136.63498
136.63498
136.63498
136.63498
136.63498
136.63498
136.63498
136.63498
136.63498
136.63498
136.63498
136.63498
136.63498
136.63498
218.93877
136.63498
136.63498
136.63498
136.63498
136.63498
136.63498
136.63498
136.63498
136.63498
136.63498
136.63498
136.63498
136.63498
136.63498
136.63498
218.93877
218.93877
136.63498
218.93877
136.63498
136.63498
218.93877
218.93877
218.93877
218.93877
218.93877
136.63498
218.93877
136.63498
218.93877
218.93877
136.63498
218.93877
218.93877
136.63498
136.63498
136.63498
136.63498
218.93877
218.93877
218.93877
136.63498
136.63498
136.63498
136.63498
136.63498
218.93877
218.93877
218.93877
136.63498
218.93877
218.93877
218.93877
136.63498
136.63498
218.93877
218.93877
218.93877
136.63498
218.93877
218.93877
218.93877
218.93877
218.93877
218.93877
218.93877
218.93877
136.63498
218.93877
218.93877
136.63498
218.93877
218.93877
136.63498
218.93877
136.63498
218.93877
218.93877
218.93877
218.93877
218.93877
218.93877
218.93877
218.93877
218.93877
218.93877
218.93877
218.93877
136.63498
218.93877
218.93877
218.93877
136.63498
218.93877
218.93877
218.93877
218.93877
218.93877
136.63498
136.63498
136.63498
218.93877
218.93877
218.93877
218.93877
218.93877
218.93877
136.63498
136.63498
136.63498
136.63498
136.63498
136.63498
136.63498
136.63498
136.63498
136.63498
136.63498
136.63498
136.63498
136.63498
136.63498
136.63498
136.63498
218.93877
218.93877
218.93877
218.93877
218.93877
218.93877
218.93877
218.93877
218.93877
218.93877
218.93877
218.93877
136.63498
218.93877
218.93877
136.63498
218.93877
218.93877
136.63498
218.93877
218.93877
136.63498
136.63498
136.63498
136.63498
136.63498
218.93877
218.93877
218.93877
218.93877
136.63498
218.93877
218.93877
136.63498
218.93877
218.93877
218.93877
218.93877
218.93877
218.93877
136.63498
218.93877
218.93877
218.93877
136.63498
218.93877
218.93877
218.93877
218.93877
150.69028
30.726233
0
163.85457
0
126.23636
0
14.712389
0
0
0
0
10.084571
279.43732
0.84993984
0
163.29686
0
0
10.074053
25.84558
181.9175
4.869171
175.73948
231.28822
73.685927
11.178139
177.11353
8.8814908
)


675
(
180.4505
180.4505
180.4505
180.4505
180.4505
180.4505
180.4505
180.4505
142.8787
180.4505
180.4505
180.4505
180.4505
123.53756
180.4505
180.4505
157.96402
180.4505
152.14142
180.4505
180.4505
147.01418
180.4505
180.4505
180.4505
180.4505
180.4505
33.328754
180.4505
180.4505
70.93398
180.4505
180.4505
180.4505
86.107379
180.4505
180.4505
69.410729
180.4505
180.4505
180.4505
98.464953
82.334613
180.4505
180.4505
178.75054
178.75054
178.75054
178.75054
178.75054
178.75054
178.75054
178.75054
178.75054
178.75054
178.75054
178.75054
178.75054
178.75054
178.75054
178.75054
178.75054
178.75054
178.75054
178.75054
178.75054
178.75054
178.75054
178.75054
178.75054
178.75054
178.75054
178.75054
178.75054
178.75054
178.75054
178.75054
178.75054
178.75054
178.75054
178.75054
178.75054
178.75054
178.75054
178.75054
178.75054
178.75054
178.75054
178.75054
178.75054
178.75054
180.4505
178.75054
178.75054
180.4505
180.4505
178.75054
178.75054
178.75054
178.75054
178.75054
180.4505
180.4505
178.75054
178.75054
178.75054
178.75054
178.75054
178.75054
178.75054
178.75054
178.75054
178.75054
178.75054
178.75054
178.75054
178.75054
178.75054
180.4505
180.4505
178.75054
178.75054
178.75054
178.75054
178.75054
178.75054
178.75054
178.75054
178.75054
178.75054
178.75054
178.75054
180.4505
180.4505
180.4505
180.4505
180.4505
178.75054
180.4505
180.4505
178.75054
180.4505
180.4505
178.75054
180.4505
180.4505
178.75054
180.4505
180.4505
178.75054
180.4505
178.75054
180.4505
180.4505
180.4505
180.4505
180.4505
180.4505
180.4505
180.4505
178.75054
178.75054
178.75054
180.4505
180.4505
180.4505
180.4505
180.4505
180.4505
180.4505
180.4505
180.4505
180.4505
180.4505
180.4505
180.4505
180.4505
180.4505
178.75054
178.75054
178.75054
178.75054
180.4505
180.4505
180.4505
180.4505
178.75054
178.75054
178.75054
178.75054
178.75054
178.75054
180.4505
180.4505
180.4505
178.75054
178.75054
178.75054
178.75054
178.75054
180.4505
180.4505
180.4505
178.75054
178.75054
180.4505
180.4505
180.4505
178.75054
180.4505
180.4505
180.4505
178.75054
180.4505
180.4505
180.4505
180.4505
180.4505
180.4505
178.75054
178.75054
180.4505
180.4505
180.4505
178.75054
180.4505
180.4505
180.4505
180.4505
180.4505
180.4505
180.4505
180.4505
180.4505
180.4505
180.4505
180.4505
180.4505
180.4505
180.4505
180.4505
180.4505
180.4505
180.4505
180.4505
180.4505
180.4505
180.4505
180.4505
180.4505
180.4505
180.4505
180.4505
180.4505
180.4505
180.4505
178.75054
178.75054
178.75054
178.75054
178.75054
178.75054
178.75054
178.75054
178.75054
178.75054
178.75054
178.75054
178.75054
178.75054
178.75054
178.75054
178.75054
178.75054
178.75054
178.75054
53.389932
178.75054
178.75054
178.75054
178.75054
178.75054
178.75054
178.75054
178.75054
178.75054
178.75054
178.75054
178.75054
178.75054
178.75054
178.75054
178.75054
178.75054
178.75054
178.75054
178.75054
178.75054
178.75054
178.75054
178.75054
178.75054
178.75054
178.75054
178.75054
178.75054
178.75054
178.75054
178.75054
178.75054
178.75054
178.75054
178.75054
178.75054
178.75054
178.75054
178.75054
178.75054
178.75054
178.75054
178.75054
178.75054
178.75054
178.75054
178.75054
178.75054
178.75054
178.75054
178.75054
178.75054
178.75054
178.75054
178.75054
178.75054
178.75054
178.75054
178.75054
178.75054
178.75054
178.75054
178.75054
178.75054
178.75054
178.75054
178.75054
178.75054
178.75054
178.75054
178.75054
178.75054
178.75054
178.75054
178.75054
178.75054
178.75054
178.75054
178.75054
178.75054
178.75054
178.75054
178.75054
178.75054
178.75054
178.75054
178.75054
178.75054
178.75054
178.75054
178.75054
178.75054
178.75054
178.75054
178.75054
178.75054
178.75054
178.75054
178.75054
178.75054
178.75054
178.75054
178.75054
178.75054
178.75054
178.75054
178.75054
178.75054
178.75054
178.75054
178.75054
178.75054
178.75054
178.75054
178.75054
178.75054
178.75054
178.75054
178.75054
178.75054
178.75054
178.75054
178.75054
178.75054
178.75054
178.75054
178.75054
178.75054
178.75054
178.75054
178.75054
178.75054
178.75054
178.75054
178.75054
178.75054
178.75054
178.75054
178.75054
178.75054
178.75054
178.75054
178.75054
178.75054
178.75054
178.75054
178.75054
178.75054
178.75054
180.4505
180.4505
180.4505
180.4505
180.4505
180.4505
180.4505
180.4505
180.4505
180.4505
180.4505
180.4505
180.4505
180.4505
180.4505
180.4505
180.4505
180.4505
180.4505
180.4505
180.4505
180.4505
180.4505
178.75054
178.75054
178.75054
178.75054
178.75054
178.75054
178.75054
178.75054
178.75054
178.75054
178.75054
178.75054
178.75054
178.75054
178.75054
178.75054
178.75054
178.75054
178.75054
178.75054
178.75054
178.75054
180.4505
178.75054
178.75054
178.75054
178.75054
178.75054
178.75054
178.75054
178.75054
178.75054
178.75054
178.75054
178.75054
178.75054
178.75054
178.75054
180.4505
180.4505
178.75054
180.4505
178.75054
178.75054
180.4505
180.4505
180.4505
180.4505
180.4505
178.75054
180.4505
178.75054
180.4505
180.4505
178.75054
180.4505
180.4505
178.75054
178.75054
178.75054
178.75054
180.4505
180.4505
180.4505
178.75054
178.75054
178.75054
178.75054
178.75054
180.4505
180.4505
180.4505
178.75054
180.4505
180.4505
180.4505
178.75054
178.75054
180.4505
180.4505
180.4505
178.75054
180.4505
180.4505
180.4505
180.4505
180.4505
180.4505
180.4505
180.4505
178.75054
180.4505
180.4505
178.75054
180.4505
180.4505
178.75054
180.4505
178.75054
180.4505
180.4505
180.4505
180.4505
180.4505
180.4505
180.4505
180.4505
180.4505
180.4505
180.4505
180.4505
178.75054
180.4505
180.4505
180.4505
178.75054
180.4505
180.4505
180.4505
180.4505
180.4505
178.75054
178.75054
178.75054
180.4505
180.4505
180.4505
180.4505
180.4505
180.4505
178.75054
178.75054
178.75054
178.75054
178.75054
178.75054
178.75054
178.75054
178.75054
178.75054
178.75054
178.75054
178.75054
178.75054
178.75054
178.75054
178.75054
180.4505
180.4505
180.4505
180.4505
180.4505
180.4505
180.4505
180.4505
180.4505
180.4505
180.4505
180.4505
178.75054
180.4505
180.4505
178.75054
180.4505
180.4505
178.75054
180.4505
180.4505
178.75054
178.75054
178.75054
178.75054
178.75054
180.4505
180.4505
180.4505
180.4505
178.75054
180.4505
180.4505
178.75054
180.4505
180.4505
180.4505
180.4505
180.4505
180.4505
178.75054
180.4505
180.4505
180.4505
178.75054
180.4505
180.4505
180.4505
180.4505
189.88901
10.647096
0
191.06354
0
111.68927
0
4.5425479
0
33.929849
0
0
0
251.43011
1.3827862
0
149.2613
0
18.55946
72.349707
10.711006
217.472
16.71747
159.05047
250.01523
121.12376
58.399706
202.11988
3.4614063
)

)

skyViewCoeff: 
5
(

675
(
302
302
302
302
302
302
302
302
302
302
302
302
302
302
302
302
302
302
302
302
302
302
302
302
302
302
302
302
302
302
302
302
302
302
302
302
302
302
302
302
302
302
302
302
302
151
151
151
151
151
151
151
151
151
151
151
151
151
151
151
151
151
151
151
151
151
151
151
151
151
151
151
151
151
151
151
151
151
151
151
151
151
151
151
151
151
151
151
151
151
151
302
151
151
302
302
151
151
151
151
151
301.99999
302
151
151
151
151
151
151
151
151
151
151
151
151
151
151
151
302
302
151
151
151
151
151
151
151
151
151
151
151
151
302
302
302
302
302
151
301.99999
301.99999
151
301.99999
301.99999
151
301.99999
301.99999
151
301.99999
301.99999
151
301.99999
151
301.99999
301.99999
302
302
301.99999
301.99999
301.99999
301.99999
151
151
151
302
302
302
302
302
302
302
302
302
302
302
302
302
302
302
151
151
151
151
302
302
302
302
151
151
151
151
151
151
302
302
302
151
151
151
151
151
302
302
302
151
151
301.99999
302
301.99999
151
302
301.99999
301.99999
151
301.99999
302
301.99999
301.99999
302
301.99999
151
151
301.99999
302
301.99999
151
301.99999
302
301.99999
302
302
302
302
302
302
302
302
302
302
302
302
302
302
302
302
302
302
302
301.99999
301.99999
301.99999
302
301.99999
302
302
302
302
151
151
151
151
151
151
151
151
151
151
151
151
151
151
151
151
151
151
151
151
151
151
151
151
151
151
151
151
151
151
151
151
151
151
151
151
151
151
151
151
151
151
151
151
151
151
151
151
151
151
151
151
151
151
151
151
151
151
151
151
151
151
151
151
151
151
151
151
151
151
151
151
151
151
151
151
151
151
151
151
151
151
151
151
151
151
151
151
151
151
151
151
151
151
151
151
151
151
151
151
151
151
151
151
151
151
151
151
151
151
151
151
151
151
151
151
151
151
151
151
151
151
151
151
151
151
151
151
151
151
151
151
151
151
151
151
151
151
151
151
151
151
151
151
151
151
151
151
151
151
151
151
151
151
151
151
151
151
151
151
151
151
151
151
151
151
151
151
151
151
151
302
302
302
302
302
301.99999
301.99999
302
302
302
302
302
302
302
301.99999
301.99999
302
302
302
302
302
302
302
151
151
151
151
151
151
151
151
151
151
151
151
151
151
151
151
151
151
151
151
151
151
301.99999
151
151
151
151
151
151
151
151
151
151
151
151
151
151
151
302
301.99999
151
301.99999
151
151
302
302
302
302
301.99999
151
301.99999
151
301.99999
301.99999
151
301.99999
301.99999
151
151
151
151
301.99999
302
301.99999
151
151
151
151
151
302
302
302
151
301.99999
302
301.99999
151
151
301.99999
302
301.99999
151
301.99999
302
301.99999
302
302
302
301.99999
301.99999
151
301.99999
301.99999
151
301.99999
301.99999
151
302
151
302
302
301.99999
301.99999
301.99999
301.99999
302
301.99999
301.99999
302
302
302
151
302
302
301.99999
151
301.99999
302
302
301.99999
301.99999
151
151
151
302
302
302
302
302
302
151
151
151
151
151
151
151
151
151
151
151
151
151
151
151
151
151
302
302
302
302
302
302
302
302
302
302
302
302
151
301.99999
301.99999
151
301.99999
301.99999
151
301.99999
301.99999
151
151
151
151
151
302
302
302
302
151
302
302
151
301.99999
302
301.99999
301.99999
302
301.99999
151
301.99999
302
301.99999
151
302
302
302
302
172.00019
212.43474
195.38894
162.12146
161.79788
226.23437
166.07016
159.87025
211.45291
227.97906
255.06874
156.51951
156.97397
270.70918
175.5475
224.88302
187.78467
252.82355
179.08252
186.53258
241.22612
181.90149
192.95023
195.11123
202.78226
179.08077
161.1344
163.0618
201.52161
)


675
(
383
383
383
383
383
383
383
383
383
383
383
383
383
383
383
383
383
383
383
383
383
383
383
383
383
383
383
383
383
383
383
383
383
383
383
383
383
383
383
383
383
383
383
383
383
191.5
191.5
191.5
191.5
191.5
191.5
191.5
191.5
191.5
191.5
191.5
191.5
191.5
191.5
191.5
191.5
191.5
191.5
191.5
191.5
191.5
191.5
191.5
191.5
191.5
191.5
191.5
191.5
191.5
191.5
191.5
191.5
191.5
191.5
191.5
191.5
191.5
191.5
191.5
191.5
191.5
191.5
191.5
191.5
191.5
191.5
383
191.5
191.5
383
383
191.5
191.5
191.5
191.5
191.5
382.99999
382.99999
191.5
191.5
191.5
191.5
191.5
191.5
191.5
191.5
191.5
191.5
191.5
191.5
191.5
191.5
191.5
383
382.99999
191.5
191.5
191.5
191.5
191.5
191.5
191.5
191.5
191.5
191.5
191.5
191.5
382.99999
382.99999
382.99999
382.99999
382.99999
191.5
382.99999
382.99999
191.5
382.99999
382.99999
191.5
382.99999
382.99999
191.5
382.99999
382.99999
191.5
382.99999
191.5
382.99999
382.99999
383
382.99999
382.99999
382.99999
382.99999
382.99999
191.5
191.5
191.5
383
383
383
383
383
383
383
383
383
383
383
383
383
383
383
191.5
191.5
191.5
191.5
383
383
383
383
191.5
191.5
191.5
191.5
191.5
191.5
383
383
383
191.5
191.5
191.5
191.5
191.5
383
383
383
191.5
191.5
382.99999
382.99999
382.99999
191.5
382.99999
382.99999
382.99999
191.5
382.99999
382.99999
382.99999
382.99999
382.99999
382.99999
191.5
191.5
382.99999
382.99999
382.99999
191.5
382.99999
382.99999
382.99999
383
383
383
383
383
383
383
383
383
383
383
383
383
383
383
383
383
383
382.99999
382.99999
382.99999
382.99999
382.99999
382.99999
383
383
383
383
191.5
191.5
191.5
191.5
191.5
191.5
191.5
191.5
191.5
191.5
191.5
191.5
191.5
191.5
191.5
191.5
191.5
191.5
191.5
191.5
191.5
191.5
191.5
191.5
191.5
191.5
191.5
191.5
191.5
191.5
191.5
191.5
191.5
191.5
191.5
191.5
191.5
191.5
191.5
191.5
191.5
191.5
191.5
191.5
191.5
191.5
191.5
191.5
191.5
191.5
191.5
191.5
191.5
191.5
191.5
191.5
191.5
191.5
191.5
191.5
191.5
191.5
191.5
191.5
191.5
191.5
191.5
191.5
191.5
191.5
191.5
191.5
191.5
191.5
191.5
191.5
191.5
191.5
191.5
191.5
191.5
191.5
191.5
191.5
191.5
191.5
191.5
191.5
191.5
191.5
191.5
191.5
191.5
191.5
191.5
191.5
191.5
191.5
191.5
191.5
191.5
191.5
191.5
191.5
191.5
191.5
191.5
191.5
191.5
191.5
191.5
191.5
191.5
191.5
191.5
191.5
191.5
191.5
191.5
191.5
191.5
191.5
191.5
191.5
191.5
191.5
191.5
191.5
191.5
191.5
191.5
191.5
191.5
191.5
191.5
191.5
191.5
191.5
191.5
191.5
191.5
191.5
191.5
191.5
191.5
191.5
191.5
191.5
191.5
191.5
191.5
191.5
191.5
191.5
191.5
191.5
191.5
191.5
191.5
191.5
191.5
191.5
191.5
191.5
191.5
191.5
191.5
191.5
191.5
191.5
191.5
383
383
382.99999
383
383
382.99999
382.99999
383
383
383
383
383
383
382.99999
382.99999
382.99999
383
383
383
383
383
383
383
191.5
191.5
191.5
191.5
191.5
191.5
191.5
191.5
191.5
191.5
191.5
191.5
191.5
191.5
191.5
191.5
191.5
191.5
191.5
191.5
191.5
191.5
382.99999
191.5
191.5
191.5
191.5
191.5
191.5
191.5
191.5
191.5
191.5
191.5
191.5
191.5
191.5
191.5
382.99999
382.99999
191.5
382.99999
191.5
191.5
383
382.99999
382.99999
382.99999
382.99999
191.5
382.99999
191.5
382.99999
382.99999
191.5
382.99999
382.99999
191.5
191.5
191.5
191.5
382.99999
382.99999
382.99999
191.5
191.5
191.5
191.5
191.5
383
383
383
191.5
382.99999
382.99999
382.99999
191.5
191.5
382.99999
382.99999
382.99999
191.5
382.99999
382.99999
382.99999
382.99999
383
382.99999
382.99999
382.99999
191.5
382.99999
382.99999
191.5
382.99999
382.99999
191.5
382.99999
191.5
382.99999
382.99999
382.99999
382.99999
382.99999
382.99999
382.99999
382.99999
382.99999
383
383
383
191.5
382.99999
382.99999
382.99999
191.5
382.99999
382.99999
382.99999
382.99999
382.99999
191.5
191.5
191.5
383
383
383
383
383
383
191.5
191.5
191.5
191.5
191.5
191.5
191.5
191.5
191.5
191.5
191.5
191.5
191.5
191.5
191.5
191.5
191.5
383
383
383
383
383
383
383
383
383
382.99999
382.99999
382.99999
191.5
382.99999
382.99999
191.5
382.99999
382.99999
191.5
382.99999
382.99999
191.5
191.5
191.5
191.5
191.5
383
383
383
383
191.5
383
383
191.5
382.99999
382.99999
382.99999
382.99999
382.99999
382.99999
191.5
382.99999
382.99999
382.99999
191.5
383
383
383
383
218.1327
269.41227
247.79459
205.60437
205.19399
286.91312
210.61216
202.74935
268.1671
289.12576
323.48121
198.49991
199.07627
343.3166
222.63143
285.19933
238.15075
320.63384
227.11459
236.56284
305.92584
230.68964
244.70178
247.44239
257.17088
227.11237
204.35257
206.79691
255.57211
)


675
(
334
334
334
334
334
334
334
334
334
334
334
334
334
334
334
334
334
334
334
334
334
334
334
334
334
334
334
334
334
334
334
334
334
334
334
334
334
334
334
334
334
334
334
334
334
167
167
167
167
167
167
167
167
167
167
167
167
167
167
167
167
167
167
167
167
167
167
167
167
167
167
167
167
167
167
167
167
167
167
167
167
167
167
167
167
167
167
167
167
167
167
334
167
167
334
334
167
167
167
167
167
333.99999
333.99999
167
167
167
167
167
167
167
167
167
167
167
167
167
167
167
334
333.99999
167
167
167
167
167
167
167
167
167
167
167
167
333.99999
333.99999
333.99999
333.99999
333.99999
167
333.99999
333.99999
167
333.99999
333.99999
167
333.99999
333.99999
167
333.99999
333.99999
167
333.99999
167
333.99999
333.99999
334
333.99999
333.99999
333.99999
333.99999
333.99999
167
167
167
334
334
334
334
334
334
334
334
334
334
334
334
334
334
334
167
167
167
167
334
334
334
334
167
167
167
167
167
167
334
334
334
167
167
167
167
167
334
334
334
167
167
333.99999
333.99999
333.99999
167
333.99999
333.99999
333.99999
167
333.99999
333.99999
333.99999
333.99999
333.99999
333.99999
167
167
333.99999
333.99999
333.99999
167
333.99999
333.99999
333.99999
334
334
334
334
334
334
334
334
334
334
334
334
334
334
334
334
334
334
333.99999
333.99999
333.99999
333.99999
333.99999
333.99999
334
334
334
334
167
167
167
167
167
167
167
167
167
167
167
167
167
167
167
167
167
167
167
167
167
167
167
167
167
167
167
167
167
167
167
167
167
167
167
167
167
167
167
167
167
167
167
167
167
167
167
167
167
167
167
167
167
167
167
167
167
167
167
167
167
167
167
167
167
167
167
167
167
167
167
167
167
167
167
167
167
167
167
167
167
167
167
167
167
167
167
167
167
167
167
167
167
167
167
167
167
167
167
167
167
167
167
167
167
167
167
167
167
167
167
167
167
167
167
167
167
167
167
167
167
167
167
167
167
167
167
167
167
167
167
167
167
167
167
167
167
167
167
167
167
167
167
167
167
167
167
167
167
167
167
167
167
167
167
167
167
167
167
167
167
167
167
167
167
167
167
167
167
167
167
334
334
333.99999
334
334
333.99999
333.99999
334
334
334
334
334
334
333.99999
333.99999
333.99999
334
334
334
334
334
334
334
167
167
167
167
167
167
167
167
167
167
167
167
167
167
167
167
167
167
167
167
167
167
333.99999
167
167
167
167
167
167
167
167
167
167
167
167
167
167
167
333.99999
333.99999
167
333.99999
167
167
334
333.99999
333.99999
333.99999
333.99999
167
333.99999
167
333.99999
333.99999
167
333.99999
333.99999
167
167
167
167
333.99999
333.99999
333.99999
167
167
167
167
167
334
334
334
167
333.99999
333.99999
333.99999
167
167
333.99999
333.99999
333.99999
167
333.99999
333.99999
333.99999
333.99999
334
333.99999
333.99999
333.99999
167
333.99999
333.99999
167
333.99999
333.99999
167
334
167
333.99999
333.99999
333.99999
333.99999
333.99999
333.99999
333.99999
333.99999
333.99999
334
334
334
167
333.99999
333.99999
333.99999
167
333.99999
333.99999
333.99999
333.99999
333.99999
167
167
167
334
334
334
334
334
334
167
167
167
167
167
167
167
167
167
167
167
167
167
167
167
167
167
334
334
334
334
334
334
334
334
334
333.99999
333.99999
333.99999
167
333.99999
333.99999
167
333.99999
333.99999
167
333.99999
333.99999
167
167
167
167
167
334
334
334
334
167
334
334
167
333.99999
333.99999
333.99999
333.99999
333.99999
333.99999
167
333.99999
333.99999
333.99999
167
334
334
334
334
190.22538
234.94438
216.09241
179.2999
178.94202
250.20622
183.667
176.81014
233.85852
252.13578
282.09589
173.10436
173.60698
299.39359
194.14856
248.71168
207.68238
279.6128
198.05815
206.29762
266.7865
201.17582
213.39529
215.78527
224.26912
198.05622
178.20824
180.33987
222.8749
)


675
(
273
273
273
273
273
273
273
273
273
273
273
273
273
273
273
273
273
273
273
273
273
273
273
273
273
273
273
273
273
273
273
273
273
273
273
273
273
273
273
273
273
273
273
273
273
136.5
136.5
136.5
136.5
136.5
136.5
136.5
136.5
136.5
136.5
136.5
136.5
136.5
136.5
136.5
136.5
136.5
136.5
136.5
136.5
136.5
136.5
136.5
136.5
136.5
136.5
136.5
136.5
136.5
136.5
136.5
136.5
136.5
136.5
136.5
136.5
136.5
136.5
136.5
136.5
136.5
136.5
136.5
136.5
136.5
136.5
273
136.5
136.5
273
273
136.5
136.5
136.5
136.5
136.5
273
273
136.5
136.5
136.5
136.5
136.5
136.5
136.5
136.5
136.5
136.5
136.5
136.5
136.5
136.5
136.5
273
273
136.5
136.5
136.5
136.5
136.5
136.5
136.5
136.5
136.5
136.5
136.5
136.5
273
273
273
273
273
136.5
273
273
136.5
273
273
136.5
273
273
136.5
273
273
136.5
273
136.5
273
273
273
273
273
273
273
273
136.5
136.5
136.5
273
273
273
273
273
273
273
273
273
273
273
273
273
273
273
136.5
136.5
136.5
136.5
273
273
273
273
136.5
136.5
136.5
136.5
136.5
136.5
273
273
273
136.5
136.5
136.5
136.5
136.5
273
273
273
136.5
136.5
273
273
273
136.5
273
273
273
136.5
273
273
273
273
273
273
136.5
136.5
273
273
273
136.5
273
273
273
273
273
273
273
273
273
273
273
273
273
273
273
273
273
273
273
273
273
273
273
273
273
273
273
273
273
273
273
136.5
136.5
136.5
136.5
136.5
136.5
136.5
136.5
136.5
136.5
136.5
136.5
136.5
136.5
136.5
136.5
136.5
136.5
136.5
136.5
136.5
136.5
136.5
136.5
136.5
136.5
136.5
136.5
136.5
136.5
136.5
136.5
136.5
136.5
136.5
136.5
136.5
136.5
136.5
136.5
136.5
136.5
136.5
136.5
136.5
136.5
136.5
136.5
136.5
136.5
136.5
136.5
136.5
136.5
136.5
136.5
136.5
136.5
136.5
136.5
136.5
136.5
136.5
136.5
136.5
136.5
136.5
136.5
136.5
136.5
136.5
136.5
136.5
136.5
136.5
136.5
136.5
136.5
136.5
136.5
136.5
136.5
136.5
136.5
136.5
136.5
136.5
136.5
136.5
136.5
136.5
136.5
136.5
136.5
136.5
136.5
136.5
136.5
136.5
136.5
136.5
136.5
136.5
136.5
136.5
136.5
136.5
136.5
136.5
136.5
136.5
136.5
136.5
136.5
136.5
136.5
136.5
136.5
136.5
136.5
136.5
136.5
136.5
136.5
136.5
136.5
136.5
136.5
136.5
136.5
136.5
136.5
136.5
136.5
136.5
136.5
136.5
136.5
136.5
136.5
136.5
136.5
136.5
136.5
136.5
136.5
136.5
136.5
136.5
136.5
136.5
136.5
136.5
136.5
136.5
136.5
136.5
136.5
136.5
136.5
136.5
136.5
136.5
136.5
136.5
136.5
136.5
136.5
136.5
136.5
136.5
273
273
273
273
273
273
273
273
273
273
273
273
273
273
273
273
273
273
273
273
273
273
273
136.5
136.5
136.5
136.5
136.5
136.5
136.5
136.5
136.5
136.5
136.5
136.5
136.5
136.5
136.5
136.5
136.5
136.5
136.5
136.5
136.5
136.5
273
136.5
136.5
136.5
136.5
136.5
136.5
136.5
136.5
136.5
136.5
136.5
136.5
136.5
136.5
136.5
273
273
136.5
273
136.5
136.5
273
273
273
273
273
136.5
273
136.5
273
273
136.5
273
273
136.5
136.5
136.5
136.5
273
273
273
136.5
136.5
136.5
136.5
136.5
273
273
273
136.5
273
273
273
136.5
136.5
273
273
273
136.5
273
273
273
273
273
273
273
273
136.5
273
273
136.5
273
273
136.5
273
136.5
273
273
273
273
273
273
273
273
273
273
273
273
136.5
273
273
273
136.5
273
273
273
273
273
136.5
136.5
136.5
273
273
273
273
273
273
136.5
136.5
136.5
136.5
136.5
136.5
136.5
136.5
136.5
136.5
136.5
136.5
136.5
136.5
136.5
136.5
136.5
273
273
273
273
273
273
273
273
273
273
273
273
136.5
273
273
136.5
273
273
136.5
273
273
136.5
136.5
136.5
136.5
136.5
273
273
273
273
136.5
273
273
136.5
273
273
273
273
273
273
136.5
273
273
273
136.5
273
273
273
273
155.48362
192.03538
176.62643
146.55351
146.26099
204.50988
150.12303
144.51847
191.14783
206.08703
230.57538
141.48949
141.90031
244.71392
158.69029
203.28829
169.75237
228.54579
161.88585
168.62051
218.06202
164.43413
174.4219
176.37539
183.30979
161.88427
145.66123
147.40354
182.1702
)


675
(
230
230
230
230
230
230
230
230
230
230
230
230
230
230
230
230
230
230
230
230
230
230
230
230
230
230
230
230
230
230
230
230
230
230
230
230
230
230
230
230
230
230
230
230
230
115
115
115
115
115
115
115
115
115
115
115
115
115
115
115
115
115
115
115
115
115
115
115
115
115
115
115
115
115
115
115
115
115
115
115
115
115
115
115
115
115
115
115
115
115
115
230
115
115
230
230
115
115
115
115
115
230
230
115
115
115
115
115
115
115
115
115
115
115
115
115
115
115
230
230
115
115
115
115
115
115
115
115
115
115
115
115
230
230
230
230
230
115
230
230
115
230
230
115
230
230
115
230
230
115
230
115
230
230
230
230
230
230
230
230
115
115
115
230
230
230
230
230
230
230
230
230
230
230
230
230
230
230
115
115
115
115
230
230
230
230
115
115
115
115
115
115
230
230
230
115
115
115
115
115
230
230
230
115
115
230
230
230
115
230
230
230
115
230
230
230
230
230
230
115
115
230
230
230
115
230
230
230
230
230
230
230
230
230
230
230
230
230
230
230
230
230
230
230
230
230
230
230
230
230
230
230
230
230
230
230
115
115
115
115
115
115
115
115
115
115
115
115
115
115
115
115
115
115
115
115
115
115
115
115
115
115
115
115
115
115
115
115
115
115
115
115
115
115
115
115
115
115
115
115
115
115
115
115
115
115
115
115
115
115
115
115
115
115
115
115
115
115
115
115
115
115
115
115
115
115
115
115
115
115
115
115
115
115
115
115
115
115
115
115
115
115
115
115
115
115
115
115
115
115
115
115
115
115
115
115
115
115
115
115
115
115
115
115
115
115
115
115
115
115
115
115
115
115
115
115
115
115
115
115
115
115
115
115
115
115
115
115
115
115
115
115
115
115
115
115
115
115
115
115
115
115
115
115
115
115
115
115
115
115
115
115
115
115
115
115
115
115
115
115
115
115
115
115
115
115
115
230
230
230
230
230
230
230
230
230
230
230
230
230
230
230
230
230
230
230
230
230
230
230
115
115
115
115
115
115
115
115
115
115
115
115
115
115
115
115
115
115
115
115
115
115
230
115
115
115
115
115
115
115
115
115
115
115
115
115
115
115
230
230
115
230
115
115
230
230
230
230
230
115
230
115
230
230
115
230
230
115
115
115
115
230
230
230
115
115
115
115
115
230
230
230
115
230
230
230
115
115
230
230
230
115
230
230
230
230
230
230
230
230
115
230
230
115
230
230
115
230
115
230
230
230
230
230
230
230
230
230
230
230
230
115
230
230
230
115
230
230
230
230
230
115
115
115
230
230
230
230
230
230
115
115
115
115
115
115
115
115
115
115
115
115
115
115
115
115
115
230
230
230
230
230
230
230
230
230
230
230
230
115
230
230
115
230
230
115
230
230
115
115
115
115
115
230
230
230
230
115
230
230
115
230
230
230
230
230
230
115
230
230
230
115
230
230
230
230
130.99353
161.78805
148.80615
123.46999
123.22355
172.2977
126.47727
121.75549
161.0403
173.62643
194.25765
119.2036
119.54972
206.16924
133.69512
171.26852
143.01481
192.54773
136.38735
142.06124
183.71526
138.53425
146.94885
148.59465
154.43682
136.38602
122.71825
124.18614
153.47672
)

)

End

Finalising parallel run
