/*---------------------------------------------------------------------------*\
  =========                 |
  \\      /  F ield         | OpenFOAM: The Open Source CFD Toolbox
   \\    /   O peration     | Website:  https://openfoam.org
    \\  /    A nd           | Version:  8
     \\/     M anipulation  |
\*---------------------------------------------------------------------------*/
/*   Windows 32 and 64 bit porting by blueCAPE: http://www.bluecape.com.pt   *\
|  Based on Windows porting (2.0.x v4) by Symscape: http://www.symscape.com   |
\*---------------------------------------------------------------------------*/
Build  : 8-53cd1468e263
Exec   : viewFactorsGen -region vegetation -parallel
Date   : Nov 26 2024
Time   : 16:44:09
Host   : "FOAM2"
PID    : 22976
I/O    : uncollated
Case   : C:/MetaFoam_Cases/CR_VS-UMCF_J-DOE08
nProcs : 12
Slaves : 
11
(
"FOAM2.22636"
"FOAM2.13852"
"FOAM2.17024"
"FOAM2.19388"
"FOAM2.17472"
"FOAM2.13176"
"FOAM2.13244"
"FOAM2.20092"
"FOAM2.22008"
"FOAM2.12660"
"FOAM2.18560"
)

Pstream initialized with:
    floatTransfer      : 0
    nProcsSimpleSum    : 0
    commsType          : nonBlocking
    polling iterations : 0
SigFpe : Enabling floating point exception trapping (FOAM_SIGFPE).
fileModificationChecking : Monitoring run-time modified files using timeStampMaster (fileModificationSkew 10)
allowSystemOperations : Allowing user-supplied system call operations

// * * * * * * * * * * * * * * * * * * * * * * * * * * * * * * * * * * * * * //
Create time

Create mesh vegetation for time = 0

[2] 
Creating single cell mesh...
[0] 
Creating single cell mesh...
[1] 
Creating single cell mesh...
[4] 
Creating single cell mesh...
[6] 
Creating single cell mesh...
[8] 
Creating single cell mesh...
[10] 
Creating single cell mesh...
[5] 
Creating single cell mesh...
[3] 
Creating single cell mesh...
[7] 
Creating single cell mesh...
[11] 
Creating single cell mesh...
[9] 
Creating single cell mesh...
[8] 
Created single cell mesh...
[4] 
Created single cell mesh...
[5] 
Created single cell mesh...
[9] 
Created single cell mesh...
[10] 
Created single cell mesh...
[11] 
Created single cell mesh...
[7] 
Created single cell mesh...
[2] 
Created single cell mesh...
[6] 
Created single cell mesh...
[1] 
Created single cell mesh...
[3] 
Created single cell mesh...
[0] 
Created single cell mesh...

Total number of coarse faces: 8691
[0] 
View factor patches included in the calculation : 3(4 6 7)

Calculating view factors...
Writing view factor matrix...
F44: 0
F46: 0.015467415
F47: 0.0011605821
F64: 0.33135382
F66: 0.022156219
F67: 0.012926357
F74: 0.45511037
F76: 0.23334841
F77: 0.039324811
End

Finalising parallel run
