/*---------------------------------------------------------------------------*\
  =========                 |
  \\      /  F ield         | OpenFOAM: The Open Source CFD Toolbox
   \\    /   O peration     | Website:  https://openfoam.org
    \\  /    A nd           | Version:  8
     \\/     M anipulation  |
\*---------------------------------------------------------------------------*/
/*   Windows 32 and 64 bit porting by blueCAPE: http://www.bluecape.com.pt   *\
|  Based on Windows porting (2.0.x v4) by Symscape: http://www.symscape.com   |
\*---------------------------------------------------------------------------*/
Build  : 8-53cd1468e263
Exec   : calcLAI -region air -parallel
Date   : Nov 20 2024
Time   : 13:36:46
Host   : "FOAM2"
PID    : 46240
I/O    : uncollated
Case   : C:/MetaFoam_Cases/UMCF_CRVS_jmp01
nProcs : 12
Slaves : 
11
(
"FOAM2.27028"
"FOAM2.11372"
"FOAM2.40188"
"FOAM2.34088"
"FOAM2.42668"
"FOAM2.25092"
"FOAM2.39956"
"FOAM2.19948"
"FOAM2.43864"
"FOAM2.16972"
"FOAM2.27928"
)

Pstream initialized with:
    floatTransfer      : 0
    nProcsSimpleSum    : 0
    commsType          : nonBlocking
    polling iterations : 0
SigFpe : Enabling floating point exception trapping (FOAM_SIGFPE).
fileModificationChecking : Monitoring run-time modified files using timeStampMaster (fileModificationSkew 10)
allowSystemOperations : Allowing user-supplied system call operations

// * * * * * * * * * * * * * * * * * * * * * * * * * * * * * * * * * * * * * //
Create time

timeDirs: 1(0	0)
Create mesh air for time = 0


Reading g
Gravity is = g [0 1 -2 0 0 0 0] (0 0 -9.81)
Vertical vector : (-0 -0 1)
Creating interpolation setup...

Interpolation from fvMesh to Cartesian mesh...minCellSizeFactor = 10, minCellL = 1.4891893
 took 0.187 second(s).
done !!! 
Interpolation from cartesian to rotated cartesian mesh...

vegLocalCoarseCf 438
Solar ray direction 0, It took 0.109 second(s).
vegLocalCoarseCf 438
Solar ray direction 1, It took 0.094 second(s).
vegLocalCoarseCf 438
Solar ray direction 2, It took 0.109 second(s).
vegLocalCoarseCf 438
Solar ray direction 3, It took 0.125 second(s).
vegLocalCoarseCf 438
Solar ray direction 4, It took 0.141 second(s).

Writing fields: kcLAI boundary

Writing fields: div qrsw

Total time took: 1.266 second(s).

End

Finalising parallel run
