/*---------------------------------------------------------------------------*\
  =========                 |
  \\      /  F ield         | OpenFOAM: The Open Source CFD Toolbox
   \\    /   O peration     | Website:  https://openfoam.org
    \\  /    A nd           | Version:  8
     \\/     M anipulation  |
\*---------------------------------------------------------------------------*/
/*   Windows 32 and 64 bit porting by blueCAPE: http://www.bluecape.com.pt   *\
|  Based on Windows porting (2.0.x v4) by Symscape: http://www.symscape.com   |
\*---------------------------------------------------------------------------*/
Build  : 8-53cd1468e263
Exec   : blockMesh
Date   : Nov 20 2024
Time   : 13:32:07
Host   : "FOAM2"
PID    : 28864
I/O    : uncollated
Case   : C:/MetaFoam_Cases/UMCF_CRVS_jmp01
nProcs : 1
SigFpe : Enabling floating point exception trapping (FOAM_SIGFPE).
fileModificationChecking : Monitoring run-time modified files using timeStampMaster (fileModificationSkew 10)
allowSystemOperations : Allowing user-supplied system call operations

// * * * * * * * * * * * * * * * * * * * * * * * * * * * * * * * * * * * * * //
Create time

Creating block mesh from
    "system/blockMeshDict"
Creating block edges
No non-planar block faces defined
Creating topology blocks
Creating topology patches

Creating block mesh topology

Check topology

	Basic statistics
		Number of internal faces : 0
		Number of boundary faces : 6
		Number of defined boundary faces : 6
		Number of undefined boundary faces : 0
	Checking patch -> block consistency

Creating block offsets
Creating merge list .

Creating polyMesh from blockMesh
Creating patches
Creating cells
Creating points with scale 1
    Block 0 cell size :
        i : 12.119032 .. 12.119032
        j : 12.437349 .. 12.437349
        k : 12.962882 .. 12.962882

Writing polyMesh
----------------
Mesh Information
----------------
  boundingBox: (195.78592 -21.502547 0) (270.41002 51.211646 25.925764)
  nPoints: 147
  nCells: 72
  nFaces: 276
  nInternalFaces: 156
----------------
Patches
----------------
  patch 0 (start: 156 size: 12) name: left
  patch 1 (start: 168 size: 12) name: right
  patch 2 (start: 180 size: 12) name: back
  patch 3 (start: 192 size: 12) name: front
  patch 4 (start: 204 size: 36) name: bottom
  patch 5 (start: 240 size: 36) name: top

End

/*---------------------------------------------------------------------------*\
  =========                 |
  \\      /  F ield         | OpenFOAM: The Open Source CFD Toolbox
   \\    /   O peration     | Website:  https://openfoam.org
    \\  /    A nd           | Version:  8
     \\/     M anipulation  |
\*---------------------------------------------------------------------------*/
/*   Windows 32 and 64 bit porting by blueCAPE: http://www.bluecape.com.pt   *\
|  Based on Windows porting (2.0.x v4) by Symscape: http://www.symscape.com   |
\*---------------------------------------------------------------------------*/
Build  : 8-53cd1468e263
Exec   : surfaceFeatures
Date   : Nov 20 2024
Time   : 13:32:07
Host   : "FOAM2"
PID    : 2132
I/O    : uncollated
Case   : C:/MetaFoam_Cases/UMCF_CRVS_jmp01
nProcs : 1
SigFpe : Enabling floating point exception trapping (FOAM_SIGFPE).
fileModificationChecking : Monitoring run-time modified files using timeStampMaster (fileModificationSkew 10)
allowSystemOperations : Allowing user-supplied system call operations

// * * * * * * * * * * * * * * * * * * * * * * * * * * * * * * * * * * * * * //
Create time

Reading surfaceFeaturesDict

Surface            : "tower.stl"


Feature line extraction is only valid on closed manifold surfaces.
Statistics:
Triangles    : 24804
Vertices     : 12609
Bounding Box : (228.72214 -8 0) (248.83069 38.43943 6)


Constructing feature set from included angle 150
Selecting edges purely based on geometric tests: no

Initial feature set:
    feature points : 16
    feature edges  : 964
    of which
        region edges   : 410
        external edges : 554
        internal edges : 0


Final feature set:
points      : 956
edges       : 964
boundingBox : (228.72214 -8 0) (248.83069 38.43943 6)
point classification :
    convex feature points          :        8
    concave feature points         :        0
    mixed feature points           :        8
    other (non-feature) points     :      940
edge classification :
    external (convex angle) edges  :      554
    internal (concave angle) edges :        0
    flat region edges              :        0
    open edges                     :      410
    multiply connected edges       :        0

Writing extendedFeatureEdgeMesh to "constant/extendedFeatureEdgeMesh/tower.extendedFeatureEdgeMesh"

Writing extendedEdgeMesh components to "C:/MetaFoam_Cases/UMCF_CRVS_jmp01/constant/extendedFeatureEdgeMesh/tower"

Writing featureEdgeMesh to "constant/triSurface/tower.eMesh"

ExecutionTime = 0.151 s  ClockTime = 0 s

End

/*---------------------------------------------------------------------------*\
  =========                 |
  \\      /  F ield         | OpenFOAM: The Open Source CFD Toolbox
   \\    /   O peration     | Website:  https://openfoam.org
    \\  /    A nd           | Version:  8
     \\/     M anipulation  |
\*---------------------------------------------------------------------------*/
/*   Windows 32 and 64 bit porting by blueCAPE: http://www.bluecape.com.pt   *\
|  Based on Windows porting (2.0.x v4) by Symscape: http://www.symscape.com   |
\*---------------------------------------------------------------------------*/
Build  : 8-53cd1468e263
Exec   : decomposePar -force
Date   : Nov 20 2024
Time   : 13:32:07
Host   : "FOAM2"
PID    : 38000
I/O    : uncollated
Case   : C:/MetaFoam_Cases/UMCF_CRVS_jmp01
nProcs : 1
SigFpe : Enabling floating point exception trapping (FOAM_SIGFPE).
fileModificationChecking : Monitoring run-time modified files using timeStampMaster (fileModificationSkew 10)
allowSystemOperations : Allowing user-supplied system call operations

// * * * * * * * * * * * * * * * * * * * * * * * * * * * * * * * * * * * * * //
Create time

Removing 0 existing processor directories


Decomposing mesh region0

Create mesh

Calculating distribution of cells
Selecting decompositionMethod scotch

Finished decomposition in 0 s

Calculating original mesh data

Distributing cells to processors

Distributing faces to processors

Distributing points to processors

Constructing processor meshes

Processor 0
    Number of cells = 6
    Number of faces shared with processor 1 = 2
    Number of faces shared with processor 2 = 4
    Number of faces shared with processor 3 = 2
    Number of processor patches = 3
    Number of processor faces = 8
    Number of boundary faces = 14

Processor 1
    Number of cells = 6
    Number of faces shared with processor 0 = 2
    Number of faces shared with processor 2 = 6
    Number of faces shared with processor 4 = 4
    Number of faces shared with processor 9 = 4
    Number of processor patches = 4
    Number of processor faces = 16
    Number of boundary faces = 6

Processor 2
    Number of cells = 6
    Number of faces shared with processor 0 = 4
    Number of faces shared with processor 1 = 6
    Number of faces shared with processor 9 = 2
    Number of processor patches = 3
    Number of processor faces = 12
    Number of boundary faces = 10

Processor 3
    Number of cells = 6
    Number of faces shared with processor 0 = 2
    Number of faces shared with processor 4 = 2
    Number of faces shared with processor 5 = 4
    Number of processor patches = 3
    Number of processor faces = 8
    Number of boundary faces = 14

Processor 4
    Number of cells = 6
    Number of faces shared with processor 1 = 4
    Number of faces shared with processor 3 = 2
    Number of faces shared with processor 5 = 6
    Number of faces shared with processor 6 = 4
    Number of processor patches = 4
    Number of processor faces = 16
    Number of boundary faces = 6

Processor 5
    Number of cells = 6
    Number of faces shared with processor 3 = 4
    Number of faces shared with processor 4 = 6
    Number of faces shared with processor 6 = 2
    Number of processor patches = 3
    Number of processor faces = 12
    Number of boundary faces = 10

Processor 6
    Number of cells = 6
    Number of faces shared with processor 4 = 4
    Number of faces shared with processor 5 = 2
    Number of faces shared with processor 7 = 3
    Number of faces shared with processor 8 = 3
    Number of faces shared with processor 9 = 2
    Number of processor patches = 5
    Number of processor faces = 14
    Number of boundary faces = 8

Processor 7
    Number of cells = 6
    Number of faces shared with processor 6 = 3
    Number of faces shared with processor 8 = 6
    Number of faces shared with processor 10 = 2
    Number of processor patches = 3
    Number of processor faces = 11
    Number of boundary faces = 11

Processor 8
    Number of cells = 6
    Number of faces shared with processor 6 = 3
    Number of faces shared with processor 7 = 6
    Number of faces shared with processor 11 = 2
    Number of processor patches = 3
    Number of processor faces = 11
    Number of boundary faces = 11

Processor 9
    Number of cells = 6
    Number of faces shared with processor 1 = 4
    Number of faces shared with processor 2 = 2
    Number of faces shared with processor 6 = 2
    Number of faces shared with processor 10 = 3
    Number of faces shared with processor 11 = 3
    Number of processor patches = 5
    Number of processor faces = 14
    Number of boundary faces = 8

Processor 10
    Number of cells = 6
    Number of faces shared with processor 7 = 2
    Number of faces shared with processor 9 = 3
    Number of faces shared with processor 11 = 6
    Number of processor patches = 3
    Number of processor faces = 11
    Number of boundary faces = 11

Processor 11
    Number of cells = 6
    Number of faces shared with processor 8 = 2
    Number of faces shared with processor 9 = 3
    Number of faces shared with processor 10 = 6
    Number of processor patches = 3
    Number of processor faces = 11
    Number of boundary faces = 11

Number of processor faces = 72
Max number of cells = 6 (0% above average 6)
Max number of processor patches = 5 (42.857143% above average 3.5)
Max number of faces between processors = 16 (33.333333% above average 12)

Time = 0

Processor 0: field transfer
Processor 1: field transfer
Processor 2: field transfer
Processor 3: field transfer
Processor 4: field transfer
Processor 5: field transfer
Processor 6: field transfer
Processor 7: field transfer
Processor 8: field transfer
Processor 9: field transfer
Processor 10: field transfer
Processor 11: field transfer

End

/*---------------------------------------------------------------------------*\
  =========                 |
  \\      /  F ield         | OpenFOAM: The Open Source CFD Toolbox
   \\    /   O peration     | Website:  https://openfoam.org
    \\  /    A nd           | Version:  8
     \\/     M anipulation  |
\*---------------------------------------------------------------------------*/
/*   Windows 32 and 64 bit porting by blueCAPE: http://www.bluecape.com.pt   *\
|  Based on Windows porting (2.0.x v4) by Symscape: http://www.symscape.com   |
\*---------------------------------------------------------------------------*/
Build  : 8-53cd1468e263
Exec   : snappyHexMesh -overwrite -parallel
Date   : Nov 20 2024
Time   : 13:32:08
Host   : "FOAM2"
PID    : 14568
I/O    : uncollated
Case   : C:/MetaFoam_Cases/UMCF_CRVS_jmp01
nProcs : 12
Slaves : 
11
(
"FOAM2.38196"
"FOAM2.2300"
"FOAM2.42480"
"FOAM2.28592"
"FOAM2.44264"
"FOAM2.26440"
"FOAM2.33964"
"FOAM2.34304"
"FOAM2.44372"
"FOAM2.36020"
"FOAM2.5900"
)

Pstream initialized with:
    floatTransfer      : 0
    nProcsSimpleSum    : 0
    commsType          : nonBlocking
    polling iterations : 0
SigFpe : Enabling floating point exception trapping (FOAM_SIGFPE).
fileModificationChecking : Monitoring run-time modified files using timeStampMaster (fileModificationSkew 10)
allowSystemOperations : Allowing user-supplied system call operations

// * * * * * * * * * * * * * * * * * * * * * * * * * * * * * * * * * * * * * //
Create time

Create mesh for time = 0

Read mesh in = 0.078 s

Overall mesh bounding box  : (195.78592 -21.502547 0) (270.41002 51.211646 25.925764)
Relative tolerance         : 1e-06
Absolute matching distance : 0.00010736971

Reading refinement surfaces.
Read refinement surfaces in = 0.204 s

Reading refinement shells.
Refinement level 2 for all cells inside refinementBox
Refinement level according to distance to vegetation
    level 5 for all cells within 1 metre.
    level 4 for all cells within 2 metre.
Refinement level according to distance to tower
    level 4 for all cells within 1 metre.
    level 2 for all cells within 3 metre.
Read refinement shells in = 0 s

Setting refinement level of surface to be consistent with shells.
Checked shell refinement in = 0 s

Reading features.
Read edgeMesh tower.eMesh
    points      : 956
    edges       : 964
    boundingBox : (228.72214 -8 0) (248.83069 38.43943 6)

Refinement level according to distance to "tower.eMesh" (956 points, 964 edges).
    level 4 for all cells within 0 metre.
Read features in = 0.015 s


Determining initial surface intersections
-----------------------------------------

Edge intersection testing:
    Number of edges             : 276
    Number of edges to retest   : 276
    Number of intersected edges : 2
Calculated surface intersections in = 0.031 s

Initial mesh : cells:72  faces:276  points:147
Cells per refinement level:
    0	72

Adding patches for surface regions
----------------------------------

Patch Type                Region                        
----- ----                ------                        
tower:

6     wall                tower                         

Added patches in = 0 s

[3] Selecting decompositionMethod scotch
[7] Selecting decompositionMethod scotch
[2] Selecting decompositionMethod scotch
[10] Selecting decompositionMethod scotch
[11] Selecting decompositionMethod scotch
[8] Selecting decompositionMethod scotch
[6] Selecting decompositionMethod scotch
[9] Selecting decompositionMethod scotch
[4] Selecting decompositionMethod scotch
[0] Selecting decompositionMethod scotch
[5] Selecting decompositionMethod scotch
[1] Selecting decompositionMethod scotch
Layer thickness specified as first layer and expansion ratio.

Refinement phase
----------------

Found point (229.99797 14.85455 17.325764) in cell 5 on processor 4

Feature refinement iteration 0
------------------------------

Marked for refinement due to explicit features             : 12 cells.
Determined cells to refine in = 0 s
Selected for feature refinement : 12 cells (out of 72)
Edge intersection testing:
    Number of edges             : 585
    Number of edges to retest   : 467
    Number of intersected edges : 40
Refined mesh in = 0.016 s
After refinement feature refinement iteration 0 : cells:156  faces:585  points:296
Cells per refinement level:
    0	60
    1	96
Balanced mesh in = 0 s
After balancing feature refinement iteration 0 : cells:156  faces:585  points:296
Cells per refinement level:
    0	60
    1	96

Feature refinement iteration 1
------------------------------

Marked for refinement due to explicit features             : 20 cells.
Determined cells to refine in = 0.016 s
Selected for feature refinement : 26 cells (out of 156)
Edge intersection testing:
    Number of edges             : 1275
    Number of edges to retest   : 1050
    Number of intersected edges : 148
Refined mesh in = 0 s
After refinement feature refinement iteration 1 : cells:338  faces:1275  points:644
Cells per refinement level:
    0	54
    1	124
    2	160
Balanced mesh in = 0.015 s
After balancing feature refinement iteration 1 : cells:338  faces:1275  points:644
Cells per refinement level:
    0	54
    1	124
    2	160

Feature refinement iteration 2
------------------------------

Marked for refinement due to explicit features             : 88 cells.
Determined cells to refine in = 0 s
Selected for feature refinement : 152 cells (out of 338)
Edge intersection testing:
    Number of edges             : 5046
    Number of edges to retest   : 4951
    Number of intersected edges : 470
Refined mesh in = 0 s
After refinement feature refinement iteration 2 : cells:1402  faces:5046  points:2336
Cells per refinement level:
    0	34
    1	240
    2	424
    3	704
Balanced mesh in = 0.031 s
After balancing feature refinement iteration 2 : cells:1402  faces:5046  points:2336
Cells per refinement level:
    0	34
    1	240
    2	424
    3	704

Feature refinement iteration 3
------------------------------

Marked for refinement due to explicit features             : 180 cells.
Determined cells to refine in = 0 s
Selected for feature refinement : 352 cells (out of 1402)
Edge intersection testing:
    Number of edges             : 13812
    Number of edges to retest   : 12977
    Number of intersected edges : 1262
Refined mesh in = 0 s
After refinement feature refinement iteration 3 : cells:3866  faces:13812  points:6339
Cells per refinement level:
    0	24
    1	284
    2	586
    3	1532
    4	1440
Balanced mesh in = 0.047 s
After balancing feature refinement iteration 3 : cells:3866  faces:13812  points:6339
Cells per refinement level:
    0	24
    1	284
    2	586
    3	1532
    4	1440

Feature refinement iteration 4
------------------------------

Marked for refinement due to explicit features             : 12 cells.
Determined cells to refine in = 0.016 s
Selected for feature refinement : 18 cells (out of 3866)
Edge intersection testing:
    Number of edges             : 14256
    Number of edges to retest   : 853
    Number of intersected edges : 1320
Refined mesh in = 0 s
After refinement feature refinement iteration 4 : cells:3992  faces:14256  points:6541
Cells per refinement level:
    0	24
    1	284
    2	580
    3	1568
    4	1536
Balanced mesh in = 0.031 s
After balancing feature refinement iteration 4 : cells:3992  faces:14256  points:6541
Cells per refinement level:
    0	24
    1	284
    2	580
    3	1568
    4	1536

Feature refinement iteration 5
------------------------------

Marked for refinement due to explicit features             : 0 cells.
Determined cells to refine in = 0.016 s
Selected for feature refinement : 0 cells (out of 3992)
Stopping refining since too few cells selected.


Surface refinement iteration 0
------------------------------

Marked for refinement due to surface intersection          : 60 cells.
Marked for refinement due to curvature/regions             : 459 cells.
Determined cells to refine in = 0 s
Selected for refinement : 667 cells (out of 3992)
Edge intersection testing:
    Number of edges             : 30516
    Number of edges to retest   : 23544
    Number of intersected edges : 3180
Refined mesh in = 0.015 s
After refinement surface refinement iteration 0 : cells:8661  faces:30516  points:13635
Cells per refinement level:
    0	24
    1	281
    2	527
    3	1919
    4	3334
    5	2576
Balanced mesh in = 0.063 s
After balancing surface refinement iteration 0 : cells:8661  faces:30516  points:13635
Cells per refinement level:
    0	24
    1	281
    2	527
    3	1919
    4	3334
    5	2576

Surface refinement iteration 1
------------------------------

Marked for refinement due to surface intersection          : 0 cells.
Marked for refinement due to curvature/regions             : 219 cells.
Determined cells to refine in = 0.016 s
Selected for refinement : 288 cells (out of 8661)
Edge intersection testing:
    Number of edges             : 37260
    Number of edges to retest   : 13167
    Number of intersected edges : 3856
Refined mesh in = 0.015 s
After refinement surface refinement iteration 1 : cells:10677  faces:37260  points:16365
Cells per refinement level:
    0	24
    1	277
    2	552
    3	1892
    4	3804
    5	4128
Balanced mesh in = 0.078 s
After balancing surface refinement iteration 1 : cells:10677  faces:37260  points:16365
Cells per refinement level:
    0	24
    1	277
    2	552
    3	1892
    4	3804
    5	4128

Surface refinement iteration 2
------------------------------

Marked for refinement due to surface intersection          : 0 cells.
Marked for refinement due to curvature/regions             : 5 cells.
Determined cells to refine in = 0 s
Selected for refinement : 9 cells (out of 10677)
Edge intersection testing:
    Number of edges             : 37455
    Number of edges to retest   : 661
    Number of intersected edges : 3847
Refined mesh in = 0.016 s
After refinement surface refinement iteration 2 : cells:10740  faces:37455  points:16433
Cells per refinement level:
    0	24
    1	277
    2	551
    3	1897
    4	3823
    5	4168
Skipping balancing since max unbalance 0.031284916 is less than allowable 0.1

Surface refinement iteration 3
------------------------------

Marked for refinement due to surface intersection          : 0 cells.
Marked for refinement due to curvature/regions             : 0 cells.
Determined cells to refine in = 0 s
Selected for refinement : 0 cells (out of 10740)
Stopping refining since too few cells selected.


Removing mesh beyond surface intersections
------------------------------------------

Found point (229.99797 14.85455 17.325764) in global region 0 out of 3 regions.
Keeping all cells in region 0 containing point (229.99797 14.85455 17.325764)
Selected for keeping : 9445 cells.
Edge intersection testing:
    Number of edges             : 34441
    Number of edges to retest   : 2746
    Number of intersected edges : 3847

Shell refinement iteration 0
----------------------------

Marked for refinement due to distance to explicit features : 0 cells.
Marked for refinement due to refinement shells             : 1014 cells.
Determined cells to refine in = 0.062 s
Selected for internal refinement : 2623 cells (out of 9445)
Edge intersection testing:
    Number of edges             : 93349
    Number of edges to retest   : 91106
    Number of intersected edges : 5505
Refined mesh in = 0.032 s
After refinement shell refinement iteration 0 : cells:27806  faces:93349  points:37973
Cells per refinement level:
    0	6
    1	295
    2	1216
    3	3166
    4	10667
    5	12456
Balanced mesh in = 0.187 s
After balancing shell refinement iteration 0 : cells:27806  faces:93349  points:37980
Cells per refinement level:
    0	6
    1	295
    2	1216
    3	3166
    4	10667
    5	12456

Shell refinement iteration 1
----------------------------

Marked for refinement due to distance to explicit features : 0 cells.
Marked for refinement due to refinement shells             : 3356 cells.
Determined cells to refine in = 0.016 s
Selected for internal refinement : 3925 cells (out of 27806)
Edge intersection testing:
    Number of edges             : 181861
    Number of edges to retest   : 131373
    Number of intersected edges : 5523
Refined mesh in = 0.063 s
After refinement shell refinement iteration 1 : cells:55281  faces:181861  points:71650
Cells per refinement level:
    0	0
    1	282
    2	1376
    3	4572
    4	18099
    5	30952
Balanced mesh in = 0.343 s
After balancing shell refinement iteration 1 : cells:55281  faces:181861  points:71671
Cells per refinement level:
    0	0
    1	282
    2	1376
    3	4572
    4	18099
    5	30952

Shell refinement iteration 2
----------------------------

Marked for refinement due to distance to explicit features : 0 cells.
Marked for refinement due to refinement shells             : 6658 cells.
Determined cells to refine in = 0.016 s
Selected for internal refinement : 7016 cells (out of 55281)
Edge intersection testing:
    Number of edges             : 339364
    Number of edges to retest   : 214678
    Number of intersected edges : 5523
Refined mesh in = 0.109 s
After refinement shell refinement iteration 2 : cells:104393  faces:339364  points:130854
Cells per refinement level:
    0	0
    1	251
    2	1452
    3	4206
    4	26964
    5	71520
Balanced mesh in = 0.672 s
After balancing shell refinement iteration 2 : cells:104393  faces:339364  points:130874
Cells per refinement level:
    0	0
    1	251
    2	1452
    3	4206
    4	26964
    5	71520

Shell refinement iteration 3
----------------------------

Marked for refinement due to distance to explicit features : 0 cells.
Marked for refinement due to refinement shells             : 7016 cells.
Determined cells to refine in = 0.047 s
Selected for internal refinement : 7470 cells (out of 104393)
Edge intersection testing:
    Number of edges             : 506641
    Number of edges to retest   : 239359
    Number of intersected edges : 5523
Refined mesh in = 0.187 s
After refinement shell refinement iteration 3 : cells:156683  faces:506641  points:193434
Cells per refinement level:
    0	0
    1	219
    2	1616
    3	4500
    4	23596
    5	126752
Balanced mesh in = 0.938 s
After balancing shell refinement iteration 3 : cells:156683  faces:506641  points:193438
Cells per refinement level:
    0	0
    1	219
    2	1616
    3	4500
    4	23596
    5	126752

Shell refinement iteration 4
----------------------------

Marked for refinement due to distance to explicit features : 0 cells.
Marked for refinement due to refinement shells             : 129 cells.
Determined cells to refine in = 0.015 s
Selected for internal refinement : 526 cells (out of 156683)
Edge intersection testing:
    Number of edges             : 517564
    Number of edges to retest   : 42661
    Number of intersected edges : 5523
Refined mesh in = 0.11 s
After refinement shell refinement iteration 4 : cells:160365  faces:517564  points:197015
Cells per refinement level:
    0	0
    1	203
    2	1680
    3	4695
    4	26003
    5	127784
Skipping balancing since max unbalance 0.053805283 is less than allowable 0.1

Shell refinement iteration 5
----------------------------

Marked for refinement due to distance to explicit features : 0 cells.
Marked for refinement due to refinement shells             : 0 cells.
Determined cells to refine in = 0.031 s
Selected for internal refinement : 101 cells (out of 160365)
Edge intersection testing:
    Number of edges             : 519745
    Number of edges to retest   : 8808
    Number of intersected edges : 5523
Refined mesh in = 0.094 s
After refinement shell refinement iteration 5 : cells:161072  faces:519745  points:197786
Cells per refinement level:
    0	0
    1	188
    2	1760
    3	4969
    4	26371
    5	127784
Skipping balancing since max unbalance 0.061689763 is less than allowable 0.1

Shell refinement iteration 6
----------------------------

Marked for refinement due to distance to explicit features : 0 cells.
Marked for refinement due to refinement shells             : 0 cells.
Determined cells to refine in = 0.031 s
Selected for internal refinement : 12 cells (out of 161072)
Edge intersection testing:
    Number of edges             : 519991
    Number of edges to retest   : 1101
    Number of intersected edges : 5523
Refined mesh in = 0.109 s
After refinement shell refinement iteration 6 : cells:161156  faces:519991  points:197864
Cells per refinement level:
    0	0
    1	180
    2	1820
    3	5001
    4	26371
    5	127784
Skipping balancing since max unbalance 0.061136347 is less than allowable 0.1

Shell refinement iteration 7
----------------------------

Marked for refinement due to distance to explicit features : 0 cells.
Marked for refinement due to refinement shells             : 0 cells.
Determined cells to refine in = 0.016 s
Selected for internal refinement : 0 cells (out of 161156)
Stopping refining since too few cells selected.


Dangling coarse cells refinement iteration 0
--------------------------------------------

Determined cells to refine in = 0.016 s
Selected for refinement : 35 cells (out of 161156)
Edge intersection testing:
    Number of edges             : 520516
    Number of edges to retest   : 4310
    Number of intersected edges : 5526
Refined mesh in = 0.093 s
After refinement coarse cell refinement iteration 0 : cells:161401  faces:520516  points:197934
Cells per refinement level:
    0	0
    1	180
    2	1818
    3	5007
    4	26428
    5	127968
Skipping balancing since max unbalance 0.060520446 is less than allowable 0.1

Dangling coarse cells refinement iteration 1
--------------------------------------------

Determined cells to refine in = 0.016 s
Selected for refinement : 2 cells (out of 161401)
Edge intersection testing:
    Number of edges             : 520546
    Number of edges to retest   : 242
    Number of intersected edges : 5526
Refined mesh in = 0.094 s
After refinement coarse cell refinement iteration 1 : cells:161415  faces:520546  points:197938
Cells per refinement level:
    0	0
    1	180
    2	1818
    3	5005
    4	26444
    5	127968
Skipping balancing since max unbalance 0.060441603 is less than allowable 0.1

Dangling coarse cells refinement iteration 2
--------------------------------------------

Determined cells to refine in = 0.015 s
Selected for refinement : 0 cells (out of 161415)
Stopping refining since too few cells selected.


Dangling coarse cells refinement iteration 0
--------------------------------------------

Determined cells to refine in = 0 s
Selected for refinement : 2 cells (out of 161415)
Edge intersection testing:
    Number of edges             : 520570
    Number of edges to retest   : 264
    Number of intersected edges : 5526
Refined mesh in = 0.11 s
After refinement coarse cell refinement iteration 0 : cells:161429  faces:520570  points:197940
Cells per refinement level:
    0	0
    1	180
    2	1818
    3	5003
    4	26460
    5	127968
Skipping balancing since max unbalance 0.060362771 is less than allowable 0.1

Dangling coarse cells refinement iteration 1
--------------------------------------------

Determined cells to refine in = 0.015 s
Selected for refinement : 0 cells (out of 161429)
Stopping refining since too few cells selected.


Splitting mesh at surface intersections
---------------------------------------

Introducing baffles for 5526 faces that are intersected by the surface.

Edge intersection testing:
    Number of edges             : 526096
    Number of edges to retest   : 41826
    Number of intersected edges : 10576
Created baffles in = 0.079 s


After introducing baffles : cells:161429  faces:526096  points:197940
Cells per refinement level:
    0	0
    1	180
    2	1818
    3	5003
    4	26460
    5	127968

Introducing baffles to block off problem cells
----------------------------------------------

markFacesOnProblemCells : marked 4490 additional internal faces to be converted into baffles.
Analyzed problem cells in = 0.062 s


Introducing baffles to delete problem cells.

Edge intersection testing:
    Number of edges             : 530586
    Number of edges to retest   : 18726
    Number of intersected edges : 10576
Created baffles in = 0.078 s


After introducing baffles : cells:161429  faces:530586  points:198036
Cells per refinement level:
    0	0
    1	180
    2	1818
    3	5003
    4	26460
    5	127968

Remove unreachable sections of mesh
-----------------------------------

Keeping all cells in region 0 containing point (229.99797 14.85455 17.325764)
Selected for keeping : 153852 cells.
Edge intersection testing:
    Number of edges             : 497532
    Number of edges to retest   : 0
    Number of intersected edges : 5338
Split mesh in = 0.219 s


After subsetting : cells:153852  faces:497532  points:190136
Cells per refinement level:
    0	0
    1	180
    2	1818
    3	5003
    4	24648
    5	122203

Handling cells with snap problems
---------------------------------

Introducing baffles for 5338 faces that are intersected by the surface.

Edge intersection testing:
    Number of edges             : 497532
    Number of edges to retest   : 22001
    Number of intersected edges : 5338
Created baffles in = 0.078 s


After introducing baffles : cells:153852  faces:497532  points:190136
Cells per refinement level:
    0	0
    1	180
    2	1818
    3	5003
    4	24648
    5	122203

Introducing baffles to block off problem cells
----------------------------------------------

markFacesOnProblemCells : marked 0 additional internal faces to be converted into baffles.
Analyzed problem cells in = 0.047 s


Introducing baffles to delete problem cells.

Edge intersection testing:
    Number of edges             : 497532
    Number of edges to retest   : 0
    Number of intersected edges : 5338
Created baffles in = 0.063 s


After introducing baffles : cells:153852  faces:497532  points:190136
Cells per refinement level:
    0	0
    1	180
    2	1818
    3	5003
    4	24648
    5	122203

Remove unreachable sections of mesh
-----------------------------------

Keeping all cells in region 0 containing point (229.99797 14.85455 17.325764)
Selected for keeping : 153852 cells.
Edge intersection testing:
    Number of edges             : 497532
    Number of edges to retest   : 0
    Number of intersected edges : 5338
Split mesh in = 0.203 s


After subsetting : cells:153852  faces:497532  points:190136
Cells per refinement level:
    0	0
    1	180
    2	1818
    3	5003
    4	24648
    5	122203

Merge free-standing baffles
---------------------------

freeStandingBaffles : detected 0 free-standing baffles out of 0

Detected free-standing baffles : 0
Merged free-standing baffles in = 0.031 s


dupNonManifoldPoints : Found : 0 non-manifold points (out of 201014)
Edge intersection testing:
    Number of edges             : 497532
    Number of edges to retest   : 0
    Number of intersected edges : 5338
Detected unsplittable baffles : 0

Merge refined boundary faces
----------------------------

Merging 149 sets of faces.

Edge intersection testing:
    Number of edges             : 497365
    Number of edges to retest   : 1012
    Number of intersected edges : 5171

Undo iteration 0
----------------
Checking faces in error :
    non-orthogonality > 65  degrees                        : 0
    faces with face pyramid volume < 1e-13                 : 0
    faces with concavity > 80  degrees                     : 0
    faces with skewness > 4   (internal) or 4   (boundary) : 0
    faces with interpolation weights (0..1)  < 0.05        : 0
    faces with volume ratio of neighbour cells < 0.01      : 0
    faces on cells with determinant < 0.001                : 0

Merging all points on surface that
- are used by only two boundary faces and
- make an angle with a cosine of more than 0.70710678.

Removing 151 straight edge points ...

Edge intersection testing:
    Number of edges             : 497365
    Number of edges to retest   : 1049
    Number of intersected edges : 5171

Undo iteration 0
----------------
Checking faces in error :
    non-orthogonality > 65  degrees                        : 0
    faces with face pyramid volume < 1e-13                 : 0
    faces with concavity > 80  degrees                     : 0
    faces with skewness > 4   (internal) or 4   (boundary) : 0
    faces with interpolation weights (0..1)  < 0.05        : 0
    faces with volume ratio of neighbour cells < 0.01      : 0
    faces on cells with determinant < 0.001                : 0

Doing final balancing
---------------------

Found 0 zoned faces to keep together.
Found 0 separated coupled faces to keep together.
Refined mesh : cells:153852  faces:497365  points:189976
Cells per refinement level:
    0	0
    1	180
    2	1818
    3	5003
    4	24648
    5	122203
Writing mesh to time constant
Wrote mesh in = 1.594 s.
Mesh refined in = 6.282 s.

Morphing phase
--------------


Snapping to features in 20 iterations ...
Constructing mesh displacer ...
Using mesh parameters 
{
    maxNonOrtho     65;
    maxBoundarySkewness 4;
    maxInternalSkewness 4;
    maxConcave      80;
    minVol          1e-13;
    minTetQuality   -1e+30;
    minArea         -1;
    minTwist        -1e+30;
    minDeterminant  0.001;
    minFaceWeight   0.05;
    minVolRatio     0.01;
    minTriangleTwist -1;
    nSmoothScale    4;
    errorReduction  0.75;
    relaxed
    {
        maxNonOrtho     75;
    }
}


Checking initial mesh ...
Checking faces in error :
    non-orthogonality > 65  degrees                        : 0
    faces with face pyramid volume < 1e-13                 : 0
    faces with concavity > 80  degrees                     : 0
    faces with skewness > 4   (internal) or 4   (boundary) : 0
    faces with interpolation weights (0..1)  < 0.05        : 0
    faces with volume ratio of neighbour cells < 0.01      : 0
    faces on cells with determinant < 0.001                : 0
Detected 0 illegal faces (concave, zero area or negative cell pyramid volume)
Checked initial mesh in = 0.047 s


Smoothing patch points ...
Smoothing iteration 0
Found 0 non-manifold point(s).

Scaling iteration 0
Moving mesh using displacement scaling : min:1  max:1
Checking faces in error :
    non-orthogonality > 65  degrees                        : 0
    faces with face pyramid volume < 1e-13                 : 0
    faces with concavity > 80  degrees                     : 0
    faces with skewness > 4   (internal) or 4   (boundary) : 0
    faces with interpolation weights (0..1)  < 0.05        : 0
    faces with volume ratio of neighbour cells < 0.01      : 0
    faces on cells with determinant < 0.001                : 0
Successfully moved mesh

Smoothing iteration 1
Found 0 non-manifold point(s).

Scaling iteration 0
Moving mesh using displacement scaling : min:1  max:1
Checking faces in error :
    non-orthogonality > 65  degrees                        : 0
    faces with face pyramid volume < 1e-13                 : 0
    faces with concavity > 80  degrees                     : 0
    faces with skewness > 4   (internal) or 4   (boundary) : 0
    faces with interpolation weights (0..1)  < 0.05        : 0
    faces with volume ratio of neighbour cells < 0.01      : 0
    faces on cells with determinant < 0.001                : 0
Successfully moved mesh

Smoothing iteration 2
Found 0 non-manifold point(s).

Scaling iteration 0
Moving mesh using displacement scaling : min:1  max:1
Checking faces in error :
    non-orthogonality > 65  degrees                        : 0
    faces with face pyramid volume < 1e-13                 : 0
    faces with concavity > 80  degrees                     : 0
    faces with skewness > 4   (internal) or 4   (boundary) : 0
    faces with interpolation weights (0..1)  < 0.05        : 0
    faces with volume ratio of neighbour cells < 0.01      : 0
    faces on cells with determinant < 0.001                : 0
Successfully moved mesh

Patch points smoothed in = 0.109 s



Morph iteration 0
-----------------
Calculating patchDisplacement as distance to nearest surface point ...
Wanted displacement : average:0.10760783 min:0.0018454606 max:0.39575893
Calculated surface displacement in = 0 s


Detecting near surfaces ...
Overriding nearest with intersection of close gaps at 0 out of 5926 points.
Overriding displacement on features :
   implicit features    : false
   explicit features    : true
   multi-patch features : false

Detected 0 baffle edges out of 11276 edges.
Initially selected 683 points out of 5926 for reverse attraction.
Selected 1795 points out of 5926 for reverse attraction.
Stringing feature edges : changed 5 points
Stringing feature edges : changed 0 points
Attraction:
     linear   : max:(0 0.39575893 0) avg:(0.021744648 0.0017511027 0.00042429823)
     feature  : max:(0.32981384 -0.27146973 0.073487446) avg:(0.0043907971 -0.0007667472 0.0024371568)
Feature analysis : total master points:5656 attraction to :
    feature point   : 21
    feature edge    : 641
    nearest surface : 0
    rest            : 4994

--> FOAM Warning : Displacement (-0.0038585604 0.00011063547 1.7009533e-05) at mesh point 1798 coord (228.77307 37.577788 3.646314) points through the surrounding patch faces
Smoothing displacement ...
Iteration 0
Iteration 10
Iteration 20
Iteration 30
Iteration 40
Iteration 50
Iteration 60
Iteration 70
Displacement smoothed in = 0.156 s


Moving mesh ...

Iteration 0
Moving mesh using displacement scaling : min:1  max:1
Checking faces in error :
    non-orthogonality > 65  degrees                        : 0
    faces with face pyramid volume < 1e-13                 : 0
    faces with concavity > 80  degrees                     : 0
    faces with skewness > 4   (internal) or 4   (boundary) : 0
    faces with interpolation weights (0..1)  < 0.05        : 0
    faces with volume ratio of neighbour cells < 0.01      : 0
    faces on cells with determinant < 0.001                : 0
Successfully moved mesh
Moved mesh in = 0.031 s



Morph iteration 1
-----------------
Calculating patchDisplacement as distance to nearest surface point ...
Wanted displacement : average:0.10395479 min:5.524862e-05 max:0.37968987
Calculated surface displacement in = 0 s


Detecting near surfaces ...
Overriding nearest with intersection of close gaps at 0 out of 5926 points.
Overriding displacement on features :
   implicit features    : false
   explicit features    : true
   multi-patch features : false

Detected 0 baffle edges out of 11276 edges.
Initially selected 683 points out of 5926 for reverse attraction.
Selected 1795 points out of 5926 for reverse attraction.
Stringing feature edges : changed 5 points
Stringing feature edges : changed 0 points
Attraction:
     linear   : max:(0 0.37968987 0) avg:(0.020839012 0.0016055923 -9.0909882e-05)
     feature  : max:(0.32898931 -0.27079105 0.069813073) avg:(0.0043134135 -0.00078178012 0.0023230564)
Feature analysis : total master points:5656 attraction to :
    feature point   : 21
    feature edge    : 641
    nearest surface : 0
    rest            : 4994

--> FOAM Warning : Displacement (-0.0072808637 0.0004343529 4.0964299e-05) at mesh point 1798 coord (228.76921 37.577899 3.646331) points through the surrounding patch faces
Smoothing displacement ...
Iteration 0
Iteration 10
Iteration 20
Iteration 30
Iteration 40
Iteration 50
Iteration 60
Iteration 70
Displacement smoothed in = 0.141 s


Moving mesh ...

Iteration 0
Moving mesh using displacement scaling : min:1  max:1
Checking faces in error :
    non-orthogonality > 65  degrees                        : 0
    faces with face pyramid volume < 1e-13                 : 0
    faces with concavity > 80  degrees                     : 0
    faces with skewness > 4   (internal) or 4   (boundary) : 0
    faces with interpolation weights (0..1)  < 0.05        : 0
    faces with volume ratio of neighbour cells < 0.01      : 0
    faces on cells with determinant < 0.001                : 0
Successfully moved mesh
Moved mesh in = 0.031 s



Morph iteration 2
-----------------
Calculating patchDisplacement as distance to nearest surface point ...
Wanted displacement : average:0.096680811 min:0.0011696597 max:0.35014585
Calculated surface displacement in = 0 s


Detecting near surfaces ...
Overriding nearest with intersection of close gaps at 0 out of 5926 points.
Overriding displacement on features :
   implicit features    : false
   explicit features    : true
   multi-patch features : false

Detected 0 baffle edges out of 11276 edges.
Initially selected 683 points out of 5926 for reverse attraction.
Selected 1795 points out of 5926 for reverse attraction.
Stringing feature edges : changed 5 points
Stringing feature edges : changed 0 points
Attraction:
     linear   : max:(0 0.35014585 0) avg:(0.019078119 0.0013463932 -0.00099965806)
     feature  : max:(0.32569941 -0.26808314 0.062831766) avg:(0.0041509973 -0.00080457929 0.0021058489)
Feature analysis : total master points:5656 attraction to :
    feature point   : 21
    feature edge    : 641
    nearest surface : 0
    rest            : 4994

--> FOAM Warning : Displacement (-0.0095779067 0.00097838383 6.5165009e-05) at mesh point 1798 coord (228.76193 37.578333 3.646372) points through the surrounding patch faces
Smoothing displacement ...
Iteration 0
Iteration 10
Iteration 20
Iteration 30
Iteration 40
Iteration 50
Iteration 60
Iteration 70
Displacement smoothed in = 0.141 s


Moving mesh ...

Iteration 0
Moving mesh using displacement scaling : min:1  max:1
Checking faces in error :
    non-orthogonality > 65  degrees                        : 0
    faces with face pyramid volume < 1e-13                 : 0
    faces with concavity > 80  degrees                     : 0
    faces with skewness > 4   (internal) or 4   (boundary) : 0
    faces with interpolation weights (0..1)  < 0.05        : 0
    faces with volume ratio of neighbour cells < 0.01      : 0
    faces on cells with determinant < 0.001                : 0
Successfully moved mesh
Moved mesh in = 0.031 s



Morph iteration 3
-----------------
Calculating patchDisplacement as distance to nearest surface point ...
Wanted displacement : average:0.086259733 min:8.2670538e-06 max:0.31336947
Calculated surface displacement in = 0.016 s


Detecting near surfaces ...
Overriding nearest with intersection of close gaps at 0 out of 5926 points.
Overriding displacement on features :
   implicit features    : false
   explicit features    : true
   multi-patch features : false

Detected 0 baffle edges out of 11276 edges.
Initially selected 683 points out of 5926 for reverse attraction.
Selected 1794 points out of 5926 for reverse attraction.
Stringing feature edges : changed 5 points
Stringing feature edges : changed 0 points
Attraction:
     linear   : max:(0 0.31336947 0) avg:(0.016625985 0.0010255111 -0.0020848389)
     feature  : max:(0.31837118 -0.26205127 0.053407001) avg:(0.0039059767 -0.00082569874 0.0018119126)
Feature analysis : total master points:5656 attraction to :
    feature point   : 21
    feature edge    : 641
    nearest surface : 0
    rest            : 4994

--> FOAM Warning : Displacement (-0.01029103 0.0017595098 8.2592721e-05) at mesh point 1798 coord (228.75235 37.579312 3.6464371) points through the surrounding patch faces
Smoothing displacement ...
Iteration 0
Iteration 10
Iteration 20
Iteration 30
Iteration 40
Iteration 50
Iteration 60
Iteration 70
Displacement smoothed in = 0.125 s


Moving mesh ...

Iteration 0
Moving mesh using displacement scaling : min:1  max:1
Checking faces in error :
    non-orthogonality > 65  degrees                        : 0
    faces with face pyramid volume < 1e-13                 : 0
    faces with concavity > 80  degrees                     : 0
    faces with skewness > 4   (internal) or 4   (boundary) : 0
    faces with interpolation weights (0..1)  < 0.05        : 0
    faces with volume ratio of neighbour cells < 0.01      : 0
    faces on cells with determinant < 0.001                : 0
Successfully moved mesh
Moved mesh in = 0.047 s



Morph iteration 4
-----------------
Calculating patchDisplacement as distance to nearest surface point ...
Wanted displacement : average:0.073534923 min:2.060133e-05 max:0.26945928
Calculated surface displacement in = 0 s


Detecting near surfaces ...
Overriding nearest with intersection of close gaps at 0 out of 5926 points.
Overriding displacement on features :
   implicit features    : false
   explicit features    : true
   multi-patch features : false

Detected 0 baffle edges out of 11276 edges.
Initially selected 683 points out of 5926 for reverse attraction.
Selected 1794 points out of 5926 for reverse attraction.
Stringing feature edges : changed 5 points
Stringing feature edges : changed 0 points
Attraction:
     linear   : max:(0 0.26945928 0) avg:(0.013731736 0.00070313154 -0.0030838703)
     feature  : max:(0.30563633 -0.25156922 0.042725601) avg:(0.0035887838 -0.00083480238 0.0014776739)
Feature analysis : total master points:5656 attraction to :
    feature point   : 21
    feature edge    : 641
    nearest surface : 0
    rest            : 4994

--> FOAM Warning : Displacement (-0.0093470803 0.0027742258 8.9204257e-05) at mesh point 1798 coord (228.74206 37.581071 3.6465197) points through the surrounding patch faces
Smoothing displacement ...
Iteration 0
Iteration 10
Iteration 20
Iteration 30
Iteration 40
Iteration 50
Iteration 60
Iteration 70
Displacement smoothed in = 0.125 s


Moving mesh ...

Iteration 0
Moving mesh using displacement scaling : min:1  max:1
Checking faces in error :
    non-orthogonality > 65  degrees                        : 0
    faces with face pyramid volume < 1e-13                 : 0
    faces with concavity > 80  degrees                     : 0
    faces with skewness > 4   (internal) or 4   (boundary) : 0
    faces with interpolation weights (0..1)  < 0.05        : 0
    faces with volume ratio of neighbour cells < 0.01      : 0
    faces on cells with determinant < 0.001                : 0
Successfully moved mesh
Moved mesh in = 0.031 s



Morph iteration 5
-----------------
Calculating patchDisplacement as distance to nearest surface point ...
Wanted displacement : average:0.059594816 min:0.00018223213 max:0.22187647
Calculated surface displacement in = 0.016 s


Detecting near surfaces ...
Overriding nearest with intersection of close gaps at 0 out of 5926 points.
Overriding displacement on features :
   implicit features    : false
   explicit features    : true
   multi-patch features : false

Detected 0 baffle edges out of 11276 edges.
Initially selected 683 points out of 5926 for reverse attraction.
Selected 1794 points out of 5926 for reverse attraction.
Stringing feature edges : changed 5 points
Stringing feature edges : changed 0 points
Attraction:
     linear   : max:(0 0.22187647 0) avg:(0.010683373 0.00043275889 -0.0037569667)
     feature  : max:(0.28653406 -0.23584614 0.032044201) avg:(0.0032148063 -0.00082256613 0.0011417739)
Feature analysis : total master points:5656 attraction to :
    feature point   : 21
    feature edge    : 641
    nearest surface : 0
    rest            : 4994

--> FOAM Warning : Displacement (-0.0070958355 0.0039600543 8.5000634e-05) at mesh point 1798 coord (228.73271 37.583846 3.6466089) points through the surrounding patch faces
Smoothing displacement ...
Iteration 0
Iteration 10
Iteration 20
Iteration 30
Iteration 40
Iteration 50
Iteration 60
Iteration 70
Displacement smoothed in = 0.125 s


Moving mesh ...

Iteration 0
Moving mesh using displacement scaling : min:1  max:1
Checking faces in error :
    non-orthogonality > 65  degrees                        : 0
    faces with face pyramid volume < 1e-13                 : 0
    faces with concavity > 80  degrees                     : 0
    faces with skewness > 4   (internal) or 4   (boundary) : 0
    faces with interpolation weights (0..1)  < 0.05        : 0
    faces with volume ratio of neighbour cells < 0.01      : 0
    faces on cells with determinant < 0.001                : 0
Successfully moved mesh
Moved mesh in = 0.031 s



Morph iteration 6
-----------------
Calculating patchDisplacement as distance to nearest surface point ...
Wanted displacement : average:0.045782722 min:2.7955988e-06 max:0.17491439
Calculated surface displacement in = 0.015 s


Detecting near surfaces ...
Overriding nearest with intersection of close gaps at 0 out of 5926 points.
Overriding displacement on features :
   implicit features    : false
   explicit features    : true
   multi-patch features : false

Detected 0 baffle edges out of 11276 edges.
Initially selected 686 points out of 5926 for reverse attraction.
Selected 1797 points out of 5926 for reverse attraction.
Stringing feature edges : changed 4 points
Stringing feature edges : changed 0 points
Attraction:
     linear   : max:(0.17491439 0 0) avg:(0.0077564371 0.00024833907 -0.003952295)
     feature  : max:(0.26074599 -0.21461999 0.02243094) avg:(0.0027946399 -0.00079334265 0.00080874182)
Feature analysis : total master points:5656 attraction to :
    feature point   : 20
    feature edge    : 642
    nearest surface : 0
    rest            : 4994

--> FOAM Warning : Displacement (-0.0042015467 0.0051672911 7.2366478e-05) at mesh point 1798 coord (228.72562 37.587806 3.6466939) points through the surrounding patch faces
Smoothing displacement ...
Iteration 0
Iteration 10
Iteration 20
Iteration 30
Iteration 40
Iteration 50
Iteration 60
Iteration 70
Displacement smoothed in = 0.125 s


Moving mesh ...

Iteration 0
Moving mesh using displacement scaling : min:1  max:1
Checking faces in error :
    non-orthogonality > 65  degrees                        : 0
    faces with face pyramid volume < 1e-13                 : 0
    faces with concavity > 80  degrees                     : 0
    faces with skewness > 4   (internal) or 4   (boundary) : 0
    faces with interpolation weights (0..1)  < 0.05        : 0
    faces with volume ratio of neighbour cells < 0.01      : 0
    faces on cells with determinant < 0.001                : 0
Successfully moved mesh
Moved mesh in = 0.047 s



Morph iteration 7
-----------------
Calculating patchDisplacement as distance to nearest surface point ...
Wanted displacement : average:0.033142322 min:4.0419323e-06 max:0.13499517
Calculated surface displacement in = 0 s


Detecting near surfaces ...
Overriding nearest with intersection of close gaps at 0 out of 5926 points.
Overriding displacement on features :
   implicit features    : false
   explicit features    : true
   multi-patch features : false

Detected 0 baffle edges out of 11276 edges.
Initially selected 686 points out of 5926 for reverse attraction.
Selected 1797 points out of 5926 for reverse attraction.
Stringing feature edges : changed 4 points
Stringing feature edges : changed 0 points
Attraction:
     linear   : max:(0.13499517 0 0) avg:(0.0051724091 0.00015920623 -0.0036454728)
     feature  : max:(0.22880461 -0.18832904 0.014580111) avg:(0.0023627308 -0.00071986719 0.00055842857)
Feature analysis : total master points:5656 attraction to :
    feature point   : 20
    feature edge    : 642
    nearest surface : 0
    rest            : 4994

--> FOAM Warning : Displacement (-0.0014239176 0.0061708509 5.3836231e-05) at mesh point 1798 coord (228.72142 37.592973 3.6467663) points through the surrounding patch faces
Smoothing displacement ...
Iteration 0
Iteration 10
Iteration 20
Iteration 30
Iteration 40
Iteration 50
Iteration 60
Iteration 70
Displacement smoothed in = 0.125 s


Moving mesh ...

Iteration 0
Moving mesh using displacement scaling : min:1  max:1
Checking faces in error :
    non-orthogonality > 65  degrees                        : 0
    faces with face pyramid volume < 1e-13                 : 0
    faces with concavity > 80  degrees                     : 0
    faces with skewness > 4   (internal) or 4   (boundary) : 0
    faces with interpolation weights (0..1)  < 0.05        : 0
    faces with volume ratio of neighbour cells < 0.01      : 0
    faces on cells with determinant < 0.001                : 0
Successfully moved mesh
Moved mesh in = 0.047 s



Morph iteration 8
-----------------
Calculating patchDisplacement as distance to nearest surface point ...
Wanted displacement : average:0.022306494 min:4.2998721e-06 max:0.10245109
Calculated surface displacement in = 0 s


Detecting near surfaces ...
Overriding nearest with intersection of close gaps at 0 out of 5926 points.
Overriding displacement on features :
   implicit features    : false
   explicit features    : true
   multi-patch features : false

Detected 0 baffle edges out of 11276 edges.
Initially selected 686 points out of 5926 for reverse attraction.
Selected 1797 points out of 5926 for reverse attraction.
Stringing feature edges : changed 4 points
Stringing feature edges : changed 0 points
Attraction:
     linear   : max:(0.10245109 0 0) avg:(0.0030699915 0.00014649214 -0.0029382841)
     feature  : max:(0.19219587 -0.15819639 0.0087480668) avg:(0.0019264642 -0.00062094681 0.00036912472)
Feature analysis : total master points:5656 attraction to :
    feature point   : 20
    feature edge    : 642
    nearest surface : 0
    rest            : 4994

--> FOAM Warning : Displacement (0.0012601655 0.011411275 2.4320657e-06) at mesh point 1818 coord (228.70849 37.968709 1.6203877) points through the surrounding patch faces
Smoothing displacement ...
Iteration 0
Iteration 10
Iteration 20
Iteration 30
Iteration 40
Iteration 50
Iteration 60
Iteration 70
Displacement smoothed in = 0.125 s


Moving mesh ...

Iteration 0
Moving mesh using displacement scaling : min:1  max:1
Checking faces in error :
    non-orthogonality > 65  degrees                        : 0
    faces with face pyramid volume < 1e-13                 : 0
    faces with concavity > 80  degrees                     : 0
    faces with skewness > 4   (internal) or 4   (boundary) : 0
    faces with interpolation weights (0..1)  < 0.05        : 0
    faces with volume ratio of neighbour cells < 0.01      : 0
    faces on cells with determinant < 0.001                : 0
Successfully moved mesh
Moved mesh in = 0.047 s



Morph iteration 9
-----------------
Calculating patchDisplacement as distance to nearest surface point ...
Wanted displacement : average:0.015036242 min:3.9872476e-06 max:0.073735968
Calculated surface displacement in = 0 s


Detecting near surfaces ...
Overriding nearest with intersection of close gaps at 0 out of 5926 points.
Overriding displacement on features :
   implicit features    : false
   explicit features    : true
   multi-patch features : false

Detected 0 baffle edges out of 11276 edges.
Initially selected 682 points out of 5926 for reverse attraction.
Selected 1793 points out of 5926 for reverse attraction.
Stringing feature edges : changed 0 points
Attraction:
     linear   : max:(0.073735968 0 0) avg:(0.0015057927 0.00017682202 -0.002018538)
     feature  : max:(0.21125688 -0.027619674 0) avg:(0.0015789728 -0.00050639629 0.00014914923)
Feature analysis : total master points:5656 attraction to :
    feature point   : 16
    feature edge    : 646
    nearest surface : 0
    rest            : 4994

--> FOAM Warning : Displacement (-0.00053200231 0.00017727325 0.00054919135) at mesh point 1115 coord (230.68773 36.039307 5.9949092) points through the surrounding patch faces
Smoothing displacement ...
Iteration 0
Iteration 10
Iteration 20
Iteration 30
Iteration 40
Iteration 50
Iteration 60
Iteration 70
Displacement smoothed in = 0.125 s


Moving mesh ...

Iteration 0
Moving mesh using displacement scaling : min:1  max:1
Checking faces in error :
    non-orthogonality > 65  degrees                        : 0
    faces with face pyramid volume < 1e-13                 : 0
    faces with concavity > 80  degrees                     : 0
    faces with skewness > 4   (internal) or 4   (boundary) : 0
    faces with interpolation weights (0..1)  < 0.05        : 0
    faces with volume ratio of neighbour cells < 0.01      : 0
    faces on cells with determinant < 0.001                : 0
Successfully moved mesh
Moved mesh in = 0.031 s



Morph iteration 10
-----------------
Calculating patchDisplacement as distance to nearest surface point ...
Wanted displacement : average:0.010964155 min:9.3946232e-07 max:0.049848461
Calculated surface displacement in = 0.016 s


Detecting near surfaces ...
Overriding nearest with intersection of close gaps at 0 out of 5926 points.
Overriding displacement on features :
   implicit features    : false
   explicit features    : true
   multi-patch features : false

Detected 0 baffle edges out of 11276 edges.
Initially selected 682 points out of 5926 for reverse attraction.
Selected 1793 points out of 5926 for reverse attraction.
Stringing feature edges : changed 0 points
Attraction:
     linear   : max:(0.049848461 0 0) avg:(0.00045068694 0.00021407404 -0.0010966258)
     feature  : max:(0.15844266 -0.013809837 0) avg:(0.0011617318 -0.00038496061 7.4574616e-05)
Feature analysis : total master points:5656 attraction to :
    feature point   : 16
    feature edge    : 646
    nearest surface : 0
    rest            : 4994

--> FOAM Warning : Displacement (-0.00048715569 0.00015649964 0.0011319952) at mesh point 1115 coord (230.6872 36.039484 5.9954584) points through the surrounding patch faces
Smoothing displacement ...
Iteration 0
Iteration 10
Iteration 20
Iteration 30
Iteration 40
Iteration 50
Iteration 60
Iteration 70
Displacement smoothed in = 0.125 s


Moving mesh ...

Iteration 0
Moving mesh using displacement scaling : min:1  max:1
Checking faces in error :
    non-orthogonality > 65  degrees                        : 0
    faces with face pyramid volume < 1e-13                 : 0
    faces with concavity > 80  degrees                     : 0
    faces with skewness > 4   (internal) or 4   (boundary) : 0
    faces with interpolation weights (0..1)  < 0.05        : 0
    faces with volume ratio of neighbour cells < 0.01      : 0
    faces on cells with determinant < 0.001                : 0
Successfully moved mesh
Moved mesh in = 0.031 s



Morph iteration 11
-----------------
Calculating patchDisplacement as distance to nearest surface point ...
Wanted displacement : average:0.0078485405 min:5.9494609e-06 max:0.037507743
Calculated surface displacement in = 0 s


Detecting near surfaces ...
Overriding nearest with intersection of close gaps at 0 out of 5926 points.
Overriding displacement on features :
   implicit features    : false
   explicit features    : true
   multi-patch features : false

Detected 0 baffle edges out of 11276 edges.
Initially selected 682 points out of 5926 for reverse attraction.
Selected 1793 points out of 5926 for reverse attraction.
Stringing feature edges : changed 0 points
Attraction:
     linear   : max:(-0.037507743 0 0) avg:(-0.00014656252 0.00022964703 -0.0003441628)
     feature  : max:(0.11051375 -0.0062144266 0) avg:(0.00079917426 -0.00027106602 3.3558577e-05)
Feature analysis : total master points:5656 attraction to :
    feature point   : 16
    feature edge    : 646
    nearest surface : 0
    rest            : 4994

--> FOAM Warning : Displacement (-0.00047100228 0.00038694828 0.00072250752) at mesh point 1128 coord (230.63935 36.414019 5.9970118) points through the surrounding patch faces
Smoothing displacement ...
Iteration 0
Iteration 10
Iteration 20
Iteration 30
Iteration 40
Iteration 50
Iteration 60
Iteration 70
Displacement smoothed in = 0.141 s


Moving mesh ...

Iteration 0
Moving mesh using displacement scaling : min:1  max:1
Checking faces in error :
    non-orthogonality > 65  degrees                        : 0
    faces with face pyramid volume < 1e-13                 : 0
    faces with concavity > 80  degrees                     : 0
    faces with skewness > 4   (internal) or 4   (boundary) : 0
    faces with interpolation weights (0..1)  < 0.05        : 0
    faces with volume ratio of neighbour cells < 0.01      : 0
    faces on cells with determinant < 0.001                : 0
Successfully moved mesh
Moved mesh in = 0.031 s



Morph iteration 12
-----------------
Calculating patchDisplacement as distance to nearest surface point ...
Wanted displacement : average:0.0056259136 min:1.6026113e-06 max:0.044357895
Calculated surface displacement in = 0 s


Detecting near surfaces ...
Overriding nearest with intersection of close gaps at 0 out of 5926 points.
Overriding displacement on features :
   implicit features    : false
   explicit features    : true
   multi-patch features : false

Detected 0 baffle edges out of 11276 edges.
Initially selected 682 points out of 5926 for reverse attraction.
Selected 1793 points out of 5926 for reverse attraction.
Stringing feature edges : changed 0 points
Attraction:
     linear   : max:(-0.044357895 0 -8.8817842e-16) avg:(-0.00039240465 0.00021272266 0.00014535305)
     feature  : max:(0.070728803 -0.0024857706 0) avg:(0.00050661638 -0.00017459773 1.3423431e-05)
Feature analysis : total master points:5656 attraction to :
    feature point   : 16
    feature edge    : 646
    nearest surface : 0
    rest            : 4994

--> FOAM Warning : Displacement (-0.00034408659 0.00027911576 0.00089221745) at mesh point 1128 coord (230.63888 36.414406 5.9977343) points through the surrounding patch faces
Smoothing displacement ...
Iteration 0
Iteration 10
Iteration 20
Iteration 30
Iteration 40
Iteration 50
Iteration 60
Iteration 70
Displacement smoothed in = 0.125 s


Moving mesh ...

Iteration 0
Moving mesh using displacement scaling : min:1  max:1
Checking faces in error :
    non-orthogonality > 65  degrees                        : 0
    faces with face pyramid volume < 1e-13                 : 0
    faces with concavity > 80  degrees                     : 0
    faces with skewness > 4   (internal) or 4   (boundary) : 0
    faces with interpolation weights (0..1)  < 0.05        : 0
    faces with volume ratio of neighbour cells < 0.01      : 0
    faces on cells with determinant < 0.001                : 0
Successfully moved mesh
Moved mesh in = 0.047 s



Morph iteration 13
-----------------
Calculating patchDisplacement as distance to nearest surface point ...
Wanted displacement : average:0.0040811112 min:3.6539147e-08 max:0.040501078
Calculated surface displacement in = 0 s


Detecting near surfaces ...
Overriding nearest with intersection of close gaps at 0 out of 5926 points.
Overriding displacement on features :
   implicit features    : false
   explicit features    : true
   multi-patch features : false

Detected 0 baffle edges out of 11276 edges.
Initially selected 682 points out of 5926 for reverse attraction.
Selected 1793 points out of 5926 for reverse attraction.
Stringing feature edges : changed 0 points
Attraction:
     linear   : max:(-0.040501078 0 0) avg:(-0.0004089381 0.00016911708 0.00036588639)
     feature  : max:(0.040845884 -0.00087001972 0) avg:(0.00029073364 -0.00010125329 4.6982008e-06)
Feature analysis : total master points:5656 attraction to :
    feature point   : 16
    feature edge    : 646
    nearest surface : 0
    rest            : 4994

--> FOAM Warning : Displacement (-0.00022240151 0.00017757733 0.00071704153) at mesh point 1128 coord (230.63854 36.414685 5.9986265) points through the surrounding patch faces
Smoothing displacement ...
Iteration 0
Iteration 10
Iteration 20
Iteration 30
Iteration 40
Iteration 50
Iteration 60
Iteration 70
Displacement smoothed in = 0.125 s


Moving mesh ...

Iteration 0
Moving mesh using displacement scaling : min:1  max:1
Checking faces in error :
    non-orthogonality > 65  degrees                        : 0
    faces with face pyramid volume < 1e-13                 : 0
    faces with concavity > 80  degrees                     : 0
    faces with skewness > 4   (internal) or 4   (boundary) : 0
    faces with interpolation weights (0..1)  < 0.05        : 0
    faces with volume ratio of neighbour cells < 0.01      : 0
    faces on cells with determinant < 0.001                : 0
Successfully moved mesh
Moved mesh in = 0.031 s



Morph iteration 14
-----------------
Calculating patchDisplacement as distance to nearest surface point ...
Wanted displacement : average:0.0027226849 min:1.2600188e-07 max:0.029998278
Calculated surface displacement in = 0 s


Detecting near surfaces ...
Overriding nearest with intersection of close gaps at 0 out of 5926 points.
Overriding displacement on features :
   implicit features    : false
   explicit features    : true
   multi-patch features : false

Detected 0 baffle edges out of 11276 edges.
Initially selected 682 points out of 5926 for reverse attraction.
Selected 1793 points out of 5926 for reverse attraction.
Stringing feature edges : changed 0 points
Attraction:
     linear   : max:(-0.029998278 0 0) avg:(-0.00031182426 0.00011460174 0.00037979056)
     feature  : max:(0.020831401 -0.00026100592 0) avg:(0.00014768445 -5.1776035e-05 1.4094602e-06)
Feature analysis : total master points:5656 attraction to :
    feature point   : 16
    feature edge    : 646
    nearest surface : 0
    rest            : 4994

--> FOAM Warning : Displacement (-0.0013212396 2.2533622e-05 0.00022196413) at mesh point 1096 coord (229.54342 36.063828 5.9984859) points through the surrounding patch faces
Smoothing displacement ...
Iteration 0
Iteration 10
Iteration 20
Iteration 30
Iteration 40
Iteration 50
Iteration 60
Iteration 70
Displacement smoothed in = 0.141 s


Moving mesh ...

Iteration 0
Moving mesh using displacement scaling : min:1  max:1
Checking faces in error :
    non-orthogonality > 65  degrees                        : 0
    faces with face pyramid volume < 1e-13                 : 0
    faces with concavity > 80  degrees                     : 0
    faces with skewness > 4   (internal) or 4   (boundary) : 0
    faces with interpolation weights (0..1)  < 0.05        : 0
    faces with volume ratio of neighbour cells < 0.01      : 0
    faces on cells with determinant < 0.001                : 0
Successfully moved mesh
Moved mesh in = 0.031 s



Morph iteration 15
-----------------
Calculating patchDisplacement as distance to nearest surface point ...
Wanted displacement : average:0.0015901396 min:3.7984405e-07 max:0.018208538
Calculated surface displacement in = 0 s


Detecting near surfaces ...
Overriding nearest with intersection of close gaps at 0 out of 5926 points.
Overriding displacement on features :
   implicit features    : false
   explicit features    : true
   multi-patch features : false

Detected 0 baffle edges out of 11276 edges.
Initially selected 682 points out of 5926 for reverse attraction.
Selected 1793 points out of 5926 for reverse attraction.
Stringing feature edges : changed 0 points
Attraction:
     linear   : max:(-0.018208538 0 0) avg:(-0.00018973375 6.5309148e-05 0.00028259223)
     feature  : max:(0.0091137378 -6.5251479e-05 0) avg:(6.445802e-05 -2.2688843e-05 3.5236506e-07)
Feature analysis : total master points:5656 attraction to :
    feature point   : 16
    feature edge    : 646
    nearest surface : 0
    rest            : 4994

--> FOAM Warning : Displacement (-0.00062233075 1.0570865e-05 0.00051237668) at mesh point 1096 coord (229.5421 36.06385 5.9987079) points through the surrounding patch faces
Smoothing displacement ...
Iteration 0
Iteration 10
Iteration 20
Iteration 30
Iteration 40
Iteration 50
Iteration 60
Iteration 70
Displacement smoothed in = 0.125 s


Moving mesh ...

Iteration 0
Moving mesh using displacement scaling : min:1  max:1
Checking faces in error :
    non-orthogonality > 65  degrees                        : 0
    faces with face pyramid volume < 1e-13                 : 0
    faces with concavity > 80  degrees                     : 0
    faces with skewness > 4   (internal) or 4   (boundary) : 0
    faces with interpolation weights (0..1)  < 0.05        : 0
    faces with volume ratio of neighbour cells < 0.01      : 0
    faces on cells with determinant < 0.001                : 0
Successfully moved mesh
Moved mesh in = 0.047 s



Morph iteration 16
-----------------
Calculating patchDisplacement as distance to nearest surface point ...
Wanted displacement : average:0.00077308728 min:6.037137e-09 max:0.0089131561
Calculated surface displacement in = 0 s


Detecting near surfaces ...
Overriding nearest with intersection of close gaps at 0 out of 5926 points.
Overriding displacement on features :
   implicit features    : false
   explicit features    : true
   multi-patch features : false

Detected 0 baffle edges out of 11276 edges.
Initially selected 682 points out of 5926 for reverse attraction.
Selected 1793 points out of 5926 for reverse attraction.
Stringing feature edges : changed 0 points
Attraction:
     linear   : max:(-0.0089131561 0 0) avg:(-9.2827867e-05 3.0551782e-05 0.00016216297)
     feature  : max:(0.0032809456 -1.3050296e-05 0) avg:(2.3175996e-05 -8.1760058e-06 7.0473012e-08)
Feature analysis : total master points:5656 attraction to :
    feature point   : 16
    feature edge    : 646
    nearest surface : 0
    rest            : 4994

--> FOAM Warning : Displacement (-0.00023938654 4.0580038e-06 0.00043074442) at mesh point 1096 coord (229.54148 36.063861 5.9992202) points through the surrounding patch faces
Smoothing displacement ...
Iteration 0
Iteration 10
Iteration 20
Iteration 30
Iteration 40
Iteration 50
Iteration 60
Iteration 70
Displacement smoothed in = 0.125 s


Moving mesh ...

Iteration 0
Moving mesh using displacement scaling : min:1  max:1
Checking faces in error :
    non-orthogonality > 65  degrees                        : 0
    faces with face pyramid volume < 1e-13                 : 0
    faces with concavity > 80  degrees                     : 0
    faces with skewness > 4   (internal) or 4   (boundary) : 0
    faces with interpolation weights (0..1)  < 0.05        : 0
    faces with volume ratio of neighbour cells < 0.01      : 0
    faces on cells with determinant < 0.001                : 0
Successfully moved mesh
Moved mesh in = 0.031 s



Morph iteration 17
-----------------
Calculating patchDisplacement as distance to nearest surface point ...
Wanted displacement : average:0.00029660911 min:2.0482487e-09 max:0.0033747252
Calculated surface displacement in = 0 s


Detecting near surfaces ...
Overriding nearest with intersection of close gaps at 0 out of 5926 points.
Overriding displacement on features :
   implicit features    : false
   explicit features    : true
   multi-patch features : false

Detected 0 baffle edges out of 11276 edges.
Initially selected 682 points out of 5926 for reverse attraction.
Selected 1793 points out of 5926 for reverse attraction.
Stringing feature edges : changed 0 points
Attraction:
     linear   : max:(-0.0033747252 0 0) avg:(-3.5456057e-05 1.1245177e-05 7.1107396e-05)
     feature  : max:(0.00091046241 -1.9575444e-06 0) avg:(6.4303127e-06 -2.2702705e-06 1.0570952e-08)
Feature analysis : total master points:5656 attraction to :
    feature point   : 16
    feature edge    : 646
    nearest surface : 0
    rest            : 4994

--> FOAM Warning : Displacement (-7.0607862e-05 1.1985862e-06 0.00023822447) at mesh point 1096 coord (229.54124 36.063865 5.999651) points through the surrounding patch faces
Smoothing displacement ...
Iteration 0
Iteration 10
Iteration 20
Iteration 30
Iteration 40
Iteration 50
Iteration 60
Iteration 70
Displacement smoothed in = 0.141 s


Moving mesh ...

Iteration 0
Moving mesh using displacement scaling : min:1  max:1
Checking faces in error :
    non-orthogonality > 65  degrees                        : 0
    faces with face pyramid volume < 1e-13                 : 0
    faces with concavity > 80  degrees                     : 0
    faces with skewness > 4   (internal) or 4   (boundary) : 0
    faces with interpolation weights (0..1)  < 0.05        : 0
    faces with volume ratio of neighbour cells < 0.01      : 0
    faces on cells with determinant < 0.001                : 0
Successfully moved mesh
Moved mesh in = 0.031 s



Morph iteration 18
-----------------
Calculating patchDisplacement as distance to nearest surface point ...
Wanted displacement : average:8.2588631e-05 min:3.4029624e-09 max:0.00090802509
Calculated surface displacement in = 0 s


Detecting near surfaces ...
Overriding nearest with intersection of close gaps at 0 out of 5926 points.
Overriding displacement on features :
   implicit features    : false
   explicit features    : true
   multi-patch features : false

Detected 0 baffle edges out of 11276 edges.
Initially selected 682 points out of 5926 for reverse attraction.
Selected 1793 points out of 5926 for reverse attraction.
Stringing feature edges : changed 0 points
Attraction:
     linear   : max:(-0.00090802509 0 0) avg:(-9.8460775e-06 3.0111169e-06 2.2393548e-05)
     feature  : max:(0.00017298786 -1.9575444e-07 0) avg:(1.2245022e-06 -4.3162249e-07 1.0570952e-09)
Feature analysis : total master points:5656 attraction to :
    feature point   : 16
    feature edge    : 646
    nearest surface : 0
    rest            : 4994

--> FOAM Warning : Displacement (-1.4195316e-05 2.4176003e-07 8.9271935e-05) at mesh point 1096 coord (229.54117 36.063866 5.9998892) points through the surrounding patch faces
Smoothing displacement ...
Iteration 0
Iteration 10
Iteration 20
Iteration 30
Iteration 40
Iteration 50
Iteration 60
Iteration 70
Displacement smoothed in = 0.125 s


Moving mesh ...

Iteration 0
Moving mesh using displacement scaling : min:1  max:1
Checking faces in error :
    non-orthogonality > 65  degrees                        : 0
    faces with face pyramid volume < 1e-13                 : 0
    faces with concavity > 80  degrees                     : 0
    faces with skewness > 4   (internal) or 4   (boundary) : 0
    faces with interpolation weights (0..1)  < 0.05        : 0
    faces with volume ratio of neighbour cells < 0.01      : 0
    faces on cells with determinant < 0.001                : 0
Successfully moved mesh
Moved mesh in = 0.047 s



Morph iteration 19
-----------------
Calculating patchDisplacement as distance to nearest surface point ...
Wanted displacement : average:1.4021596e-05 min:1.7014834e-10 max:0.00014295524
Calculated surface displacement in = 0 s


Detecting near surfaces ...
Overriding nearest with intersection of close gaps at 0 out of 5926 points.
Overriding displacement on features :
   implicit features    : false
   explicit features    : true
   multi-patch features : false

Detected 0 baffle edges out of 11276 edges.
Initially selected 682 points out of 5926 for reverse attraction.
Selected 1793 points out of 5926 for reverse attraction.
Stringing feature edges : changed 0 points
Attraction:
     linear   : max:(-0.00014295524 0 0) avg:(-1.7067881e-06 4.9539874e-07 4.3404036e-06)
     feature  : max:(1.6866316e-05 -9.7877217e-09 0) avg:(1.2122094e-07 -4.2168382e-08 5.2854774e-11)
Feature analysis : total master points:5656 attraction to :
    feature point   : 16
    feature edge    : 646
    nearest surface : 0
    rest            : 4994

--> FOAM Warning : Displacement (0 0 2.1519422e-05) at mesh point 1096 coord (229.54115 36.063866 5.9999785) points through the surrounding patch faces
Smoothing displacement ...
Iteration 0
Iteration 10
Iteration 20
Iteration 30
Iteration 40
Iteration 50
Iteration 60
Iteration 70
Displacement smoothed in = 0.109 s


Moving mesh ...

Iteration 0
Moving mesh using displacement scaling : min:1  max:1
Checking faces in error :
    non-orthogonality > 65  degrees                        : 0
    faces with face pyramid volume < 1e-13                 : 0
    faces with concavity > 80  degrees                     : 0
    faces with skewness > 4   (internal) or 4   (boundary) : 0
    faces with interpolation weights (0..1)  < 0.05        : 0
    faces with volume ratio of neighbour cells < 0.01      : 0
    faces on cells with determinant < 0.001                : 0
Successfully moved mesh
Moved mesh in = 0.047 s


Repatching faces according to nearest surface ...
Repatched 0 faces in = 0 s


Edge intersection testing:
    Number of edges             : 497365
    Number of edges to retest   : 105649
    Number of intersected edges : 5359
Merging 286 sets of faces.

Edge intersection testing:
    Number of edges             : 497061
    Number of edges to retest   : 1422
    Number of intersected edges : 5055

Undo iteration 0
----------------
Checking faces in error :
    non-orthogonality > 65  degrees                        : 0
    faces with face pyramid volume < 1e-13                 : 0
    faces with concavity > 80  degrees                     : 0
    faces with skewness > 4   (internal) or 4   (boundary) : 0
    faces with interpolation weights (0..1)  < 0.05        : 0
    faces with volume ratio of neighbour cells < 0.01      : 0
    faces on cells with determinant < 0.001                : 0

Merging all points on surface that
- are used by only two boundary faces and
- make an angle with a cosine of more than 0.98480775.

Removing 283 straight edge points ...

Edge intersection testing:
    Number of edges             : 497061
    Number of edges to retest   : 1413
    Number of intersected edges : 5055

Undo iteration 0
----------------
Checking faces in error :
[...]
Writing cellProcAddressing to "UMCF_CRVS_jmp01/processor2/constant/polyMesh"
Writing boundaryProcAddressing to "UMCF_CRVS_jmp01/processor2/constant/polyMesh"

Reading processor 3 mesh from "UMCF_CRVS_jmp01/processor3"
Writing pointProcAddressing to "UMCF_CRVS_jmp01/processor3/constant/polyMesh"
Writing faceProcAddressing to "UMCF_CRVS_jmp01/processor3/constant/polyMesh"
Writing cellProcAddressing to "UMCF_CRVS_jmp01/processor3/constant/polyMesh"
Writing boundaryProcAddressing to "UMCF_CRVS_jmp01/processor3/constant/polyMesh"

Reading processor 4 mesh from "UMCF_CRVS_jmp01/processor4"
Writing pointProcAddressing to "UMCF_CRVS_jmp01/processor4/constant/polyMesh"
Writing faceProcAddressing to "UMCF_CRVS_jmp01/processor4/constant/polyMesh"
Writing cellProcAddressing to "UMCF_CRVS_jmp01/processor4/constant/polyMesh"
Writing boundaryProcAddressing to "UMCF_CRVS_jmp01/processor4/constant/polyMesh"

Reading processor 5 mesh from "UMCF_CRVS_jmp01/processor5"
Writing pointProcAddressing to "UMCF_CRVS_jmp01/processor5/constant/polyMesh"
Writing faceProcAddressing to "UMCF_CRVS_jmp01/processor5/constant/polyMesh"
Writing cellProcAddressing to "UMCF_CRVS_jmp01/processor5/constant/polyMesh"
Writing boundaryProcAddressing to "UMCF_CRVS_jmp01/processor5/constant/polyMesh"

Reading processor 6 mesh from "UMCF_CRVS_jmp01/processor6"
Writing pointProcAddressing to "UMCF_CRVS_jmp01/processor6/constant/polyMesh"
Writing faceProcAddressing to "UMCF_CRVS_jmp01/processor6/constant/polyMesh"
Writing cellProcAddressing to "UMCF_CRVS_jmp01/processor6/constant/polyMesh"
Writing boundaryProcAddressing to "UMCF_CRVS_jmp01/processor6/constant/polyMesh"

Reading processor 7 mesh from "UMCF_CRVS_jmp01/processor7"
Writing pointProcAddressing to "UMCF_CRVS_jmp01/processor7/constant/polyMesh"
Writing faceProcAddressing to "UMCF_CRVS_jmp01/processor7/constant/polyMesh"
Writing cellProcAddressing to "UMCF_CRVS_jmp01/processor7/constant/polyMesh"
Writing boundaryProcAddressing to "UMCF_CRVS_jmp01/processor7/constant/polyMesh"

Reading processor 8 mesh from "UMCF_CRVS_jmp01/processor8"
Writing pointProcAddressing to "UMCF_CRVS_jmp01/processor8/constant/polyMesh"
Writing faceProcAddressing to "UMCF_CRVS_jmp01/processor8/constant/polyMesh"
Writing cellProcAddressing to "UMCF_CRVS_jmp01/processor8/constant/polyMesh"
Writing boundaryProcAddressing to "UMCF_CRVS_jmp01/processor8/constant/polyMesh"

Reading processor 9 mesh from "UMCF_CRVS_jmp01/processor9"
Writing pointProcAddressing to "UMCF_CRVS_jmp01/processor9/constant/polyMesh"
Writing faceProcAddressing to "UMCF_CRVS_jmp01/processor9/constant/polyMesh"
Writing cellProcAddressing to "UMCF_CRVS_jmp01/processor9/constant/polyMesh"
Writing boundaryProcAddressing to "UMCF_CRVS_jmp01/processor9/constant/polyMesh"

Reading processor 10 mesh from "UMCF_CRVS_jmp01/processor10"
Writing pointProcAddressing to "UMCF_CRVS_jmp01/processor10/constant/polyMesh"
Writing faceProcAddressing to "UMCF_CRVS_jmp01/processor10/constant/polyMesh"
Writing cellProcAddressing to "UMCF_CRVS_jmp01/processor10/constant/polyMesh"
Writing boundaryProcAddressing to "UMCF_CRVS_jmp01/processor10/constant/polyMesh"

Reading processor 11 mesh from "UMCF_CRVS_jmp01/processor11"
Writing pointProcAddressing to "UMCF_CRVS_jmp01/processor11/constant/polyMesh"
Writing faceProcAddressing to "UMCF_CRVS_jmp01/processor11/constant/polyMesh"
Writing cellProcAddressing to "UMCF_CRVS_jmp01/processor11/constant/polyMesh"
Writing boundaryProcAddressing to "UMCF_CRVS_jmp01/processor11/constant/polyMesh"

End.

/*---------------------------------------------------------------------------*\
  =========                 |
  \\      /  F ield         | OpenFOAM: The Open Source CFD Toolbox
   \\    /   O peration     | Website:  https://openfoam.org
    \\  /    A nd           | Version:  8
     \\/     M anipulation  |
\*---------------------------------------------------------------------------*/
/*   Windows 32 and 64 bit porting by blueCAPE: http://www.bluecape.com.pt   *\
|  Based on Windows porting (2.0.x v4) by Symscape: http://www.symscape.com   |
\*---------------------------------------------------------------------------*/
Build  : 8-53cd1468e263
Exec   : createPatch -region vegetation -overwrite
Date   : Nov 20 2024
Time   : 13:32:53
Host   : "FOAM2"
PID    : 35664
I/O    : uncollated
Case   : C:/MetaFoam_Cases/UMCF_CRVS_jmp01
nProcs : 1
SigFpe : Enabling floating point exception trapping (FOAM_SIGFPE).
fileModificationChecking : Monitoring run-time modified files using timeStampMaster (fileModificationSkew 10)
allowSystemOperations : Allowing user-supplied system call operations

// * * * * * * * * * * * * * * * * * * * * * * * * * * * * * * * * * * * * * //
Create time

Create polyMesh vegetation for time = 0

Reading createPatchDict

Adding new patch air_to_vegetation as patch 8 from 
{
    type            wall;
}


Moving faces from patch vegetation to patch 8

Doing topology modification to order faces.

Not synchronising points.

Removing patches with no faces in them.

Removing zero-sized patch vegetation type wall at position 6
Removing patches.
Writing repatched mesh to 0

End

/*---------------------------------------------------------------------------*\
  =========                 |
  \\      /  F ield         | OpenFOAM: The Open Source CFD Toolbox
   \\    /   O peration     | Website:  https://openfoam.org
    \\  /    A nd           | Version:  8
     \\/     M anipulation  |
\*---------------------------------------------------------------------------*/
/*   Windows 32 and 64 bit porting by blueCAPE: http://www.bluecape.com.pt   *\
|  Based on Windows porting (2.0.x v4) by Symscape: http://www.symscape.com   |
\*---------------------------------------------------------------------------*/
Build  : 8-53cd1468e263
Exec   : changeDictionary -region vegetation
Date   : Nov 20 2024
Time   : 13:32:59
Host   : "FOAM2"
PID    : 46392
I/O    : uncollated
Case   : C:/MetaFoam_Cases/UMCF_CRVS_jmp01
nProcs : 1
SigFpe : Enabling floating point exception trapping (FOAM_SIGFPE).
fileModificationChecking : Monitoring run-time modified files using timeStampMaster (fileModificationSkew 10)
allowSystemOperations : Allowing user-supplied system call operations

// * * * * * * * * * * * * * * * * * * * * * * * * * * * * * * * * * * * * * //
--> FOAM Warning : 
changeDictionary has been superseded by foamDictionary and is now deprecated.

Create time

Create mesh vegetation for time = 0

Read dictionary changeDictionaryDict with replacements for dictionaries 1(boundary)
Reading polyMesh/boundary file to extract patch names
Loaded dictionary boundary with entries 
8
(
left
right
back
front
bottom
top
tower
air_to_vegetation
)

Extracted patch groups:
    group wall with patches 
3
(
bottom
tower
air_to_vegetation
)

Replacing entries in dictionary boundary
Special handling of boundary as polyMesh/boundary file.
Merging entries from 
8
(
left
right
back
front
bottom
top
air_to_vegetation
tower
)

fieldDict:
{
    left
    {
        type            mappedPatch;
        nFaces          111;
        startFace       368249;
        sampleMode      nearestPatchFace;
        sampleRegion    air;
        samplePatch     left;
        offsetMode      uniform;
        offset          ( 0 0 0 );
    }
    right
    {
        type            mappedPatch;
        nFaces          108;
        startFace       368360;
        sampleMode      nearestPatchFace;
        sampleRegion    air;
        samplePatch     right;
        offsetMode      uniform;
        offset          ( 0 0 0 );
    }
    back
    {
        type            mappedPatch;
        nFaces          48;
        startFace       368468;
        sampleMode      nearestPatchFace;
        sampleRegion    air;
        samplePatch     back;
        offsetMode      uniform;
        offset          ( 0 0 0 );
    }
    front
    {
        type            mappedPatch;
        nFaces          108;
        startFace       368516;
        sampleMode      nearestPatchFace;
        sampleRegion    air;
        samplePatch     front;
        offsetMode      uniform;
        offset          ( 0 0 0 );
    }
    bottom
    {
        type            mappedWall;
        inGroups        List<word> 0();
        nFaces          6170;
        startFace       368624;
        sampleMode      nearestPatchFace;
        sampleRegion    air;
        samplePatch     bottom;
        offsetMode      uniform;
        offset          ( 0 0 0 );
    }
    top
    {
        type            mappedPatch;
        nFaces          282;
        startFace       374794;
        sampleMode      nearestPatchFace;
        sampleRegion    air;
        samplePatch     top;
        offsetMode      uniform;
        offset          ( 0 0 0 );
    }
    tower
    {
        type            mappedWall;
        inGroups        List<word> 0();
        nFaces          5319;
        startFace       375076;
        sampleMode      nearestPatchFace;
        sampleRegion    air;
        samplePatch     tower;
        offsetMode      uniform;
        offset          ( 0 0 0 );
    }
    air_to_vegetation
    {
        type            mappedWall;
        inGroups        List<word> 0();
        nFaces          19595;
        startFace       380395;
        sampleMode      nearestCell;
        sampleRegion    air;
        offsetMode      uniform;
        offset          ( 0 0 0 );
    }
}

Writing modified boundary

End

/*---------------------------------------------------------------------------*\
  =========                 |
  \\      /  F ield         | OpenFOAM: The Open Source CFD Toolbox
   \\    /   O peration     | Website:  https://openfoam.org
    \\  /    A nd           | Version:  8
     \\/     M anipulation  |
\*---------------------------------------------------------------------------*/
/*   Windows 32 and 64 bit porting by blueCAPE: http://www.bluecape.com.pt   *\
|  Based on Windows porting (2.0.x v4) by Symscape: http://www.symscape.com   |
\*---------------------------------------------------------------------------*/
Build  : 8-53cd1468e263
Exec   : extrudeMesh
Date   : Nov 20 2024
Time   : 13:32:59
Host   : "FOAM2"
PID    : 36604
I/O    : uncollated
Case   : C:/MetaFoam_Cases/UMCF_CRVS_jmp01
nProcs : 1
SigFpe : Enabling floating point exception trapping (FOAM_SIGFPE).
fileModificationChecking : Monitoring run-time modified files using timeStampMaster (fileModificationSkew 10)
allowSystemOperations : Allowing user-supplied system call operations

// * * * * * * * * * * * * * * * * * * * * * * * * * * * * * * * * * * * * * //
Create time

Create mesh for time = 0

Selecting extrudeModel linearNormal
Extruding from surface using model linearNormal
Flipping normals before extruding
Not collapsing any edges after extrusion

Extruding surfaceMesh read from file "constant/triSurface/tower.stl.gz"

Flipping faces.

Extruding surface with :
    points     : 12609
    faces      : 24804
    normals[0] : (0 1 0)

Mesh bounding box : (228.72214 -8 0) (248.83069 38.43943 6)
        with span : (20.108551 46.43943 6)
Merge distance    : 0

Writing mesh to "constant/region0"

End

/*---------------------------------------------------------------------------*\
  =========                 |
  \\      /  F ield         | OpenFOAM: The Open Source CFD Toolbox
   \\    /   O peration     | Website:  https://openfoam.org
    \\  /    A nd           | Version:  8
     \\/     M anipulation  |
\*---------------------------------------------------------------------------*/
/*   Windows 32 and 64 bit porting by blueCAPE: http://www.bluecape.com.pt   *\
|  Based on Windows porting (2.0.x v4) by Symscape: http://www.symscape.com   |
\*---------------------------------------------------------------------------*/
Build  : 8-53cd1468e263
Exec   : createPatch -region tower -overwrite
Date   : Nov 20 2024
Time   : 13:33:05
Host   : "FOAM2"
PID    : 43232
I/O    : uncollated
Case   : C:/MetaFoam_Cases/UMCF_CRVS_jmp01
nProcs : 1
SigFpe : Enabling floating point exception trapping (FOAM_SIGFPE).
fileModificationChecking : Monitoring run-time modified files using timeStampMaster (fileModificationSkew 10)
allowSystemOperations : Allowing user-supplied system call operations

// * * * * * * * * * * * * * * * * * * * * * * * * * * * * * * * * * * * * * //
Create time

Create polyMesh tower for time = 0

Reading createPatchDict

Adding new patch buildings_to_air as patch 3 from 
{
    type            patch;
}

Adding new patch interior as patch 4 from 
{
    type            patch;
}


Moving faces from patch originalPatch to patch 3
Moving faces from patch otherSide to patch 4

Doing topology modification to order faces.

Not synchronising points.

Removing patches with no faces in them.

Removing zero-sized patch originalPatch type patch at position 1
Removing zero-sized patch otherSide type patch at position 2
Removing patches.
Writing repatched mesh to 0

End

/*---------------------------------------------------------------------------*\
  =========                 |
  \\      /  F ield         | OpenFOAM: The Open Source CFD Toolbox
   \\    /   O peration     | Website:  https://openfoam.org
    \\  /    A nd           | Version:  8
     \\/     M anipulation  |
\*---------------------------------------------------------------------------*/
/*   Windows 32 and 64 bit porting by blueCAPE: http://www.bluecape.com.pt   *\
|  Based on Windows porting (2.0.x v4) by Symscape: http://www.symscape.com   |
\*---------------------------------------------------------------------------*/
Build  : 8-53cd1468e263
Exec   : changeDictionary -region tower
Date   : Nov 20 2024
Time   : 13:33:11
Host   : "FOAM2"
PID    : 43612
I/O    : uncollated
Case   : C:/MetaFoam_Cases/UMCF_CRVS_jmp01
nProcs : 1
SigFpe : Enabling floating point exception trapping (FOAM_SIGFPE).
fileModificationChecking : Monitoring run-time modified files using timeStampMaster (fileModificationSkew 10)
allowSystemOperations : Allowing user-supplied system call operations

// * * * * * * * * * * * * * * * * * * * * * * * * * * * * * * * * * * * * * //
--> FOAM Warning : 
changeDictionary has been superseded by foamDictionary and is now deprecated.

Create time

Create mesh tower for time = 0

Read dictionary changeDictionaryDict with replacements for dictionaries 1(boundary)
Reading polyMesh/boundary file to extract patch names
Loaded dictionary boundary with entries 
3
(
sides
buildings_to_air
interior
)

Extracted patch groups:
    group wall with patches 1(sides)
Replacing entries in dictionary boundary
Special handling of boundary as polyMesh/boundary file.
Merging entries from 1(buildings_to_air)
fieldDict:
{
    sides
    {
        type            wall;
        inGroups        List<word> 0();
        nFaces          4100;
        startFace       593246;
    }
    buildings_to_air
    {
        type            mappedWall;
        nFaces          24804;
        startFace       597346;
        sampleMode      nearestPatchFace;
        sampleRegion    air;
        samplePatch     tower;
        offsetMode      uniform;
        offset          ( 0 0 0 );
    }
    interior
    {
        type            patch;
        nFaces          24804;
        startFace       622150;
    }
}

Writing modified boundary

End

/*---------------------------------------------------------------------------*\
  =========                 |
  \\      /  F ield         | OpenFOAM: The Open Source CFD Toolbox
   \\    /   O peration     | Website:  https://openfoam.org
    \\  /    A nd           | Version:  8
     \\/     M anipulation  |
\*---------------------------------------------------------------------------*/
/*   Windows 32 and 64 bit porting by blueCAPE: http://www.bluecape.com.pt   *\
|  Based on Windows porting (2.0.x v4) by Symscape: http://www.symscape.com   |
\*---------------------------------------------------------------------------*/
Build  : 8-53cd1468e263
Exec   : topoSet -region tower
Date   : Nov 20 2024
Time   : 13:33:12
Host   : "FOAM2"
PID    : 9636
I/O    : uncollated
Case   : C:/MetaFoam_Cases/UMCF_CRVS_jmp01
nProcs : 1
SigFpe : Enabling floating point exception trapping (FOAM_SIGFPE).
fileModificationChecking : Monitoring run-time modified files using timeStampMaster (fileModificationSkew 10)
allowSystemOperations : Allowing user-supplied system call operations

// * * * * * * * * * * * * * * * * * * * * * * * * * * * * * * * * * * * * * //
Create time

Create polyMesh tower for time = 0

Reading topoSetDict

Time = 0
    mesh not changed.
Created cellSet tower
    Applying source rotatedBoxToCell
    Adding cells with center within rotated box 
    cellSet tower now size 248040
Created cellZoneSet tower
    Applying source setToCellZone
    Adding all cells from cellSet tower ...
    cellZoneSet tower now size 248040
End

/*---------------------------------------------------------------------------*\
  =========                 |
  \\      /  F ield         | OpenFOAM: The Open Source CFD Toolbox
   \\    /   O peration     | Website:  https://openfoam.org
    \\  /    A nd           | Version:  8
     \\/     M anipulation  |
\*---------------------------------------------------------------------------*/
/*   Windows 32 and 64 bit porting by blueCAPE: http://www.bluecape.com.pt   *\
|  Based on Windows porting (2.0.x v4) by Symscape: http://www.symscape.com   |
\*---------------------------------------------------------------------------*/
Build  : 8-53cd1468e263
Exec   : topoSet -region air
Date   : Nov 20 2024
Time   : 13:33:14
Host   : "FOAM2"
PID    : 41604
I/O    : uncollated
Case   : C:/MetaFoam_Cases/UMCF_CRVS_jmp01
nProcs : 1
SigFpe : Enabling floating point exception trapping (FOAM_SIGFPE).
fileModificationChecking : Monitoring run-time modified files using timeStampMaster (fileModificationSkew 10)
allowSystemOperations : Allowing user-supplied system call operations

// * * * * * * * * * * * * * * * * * * * * * * * * * * * * * * * * * * * * * //
Create time

Create polyMesh air for time = 0

Reading topoSetDict

Time = 0
    mesh not changed.
Created cellSet vegetation
    Applying source surfaceToCell
    Adding cells in relation to surface "constant/triSurface/vegetation.stl" ...
    Marked inside/outside using surface intersection in = 1.734 s

    cellSet vegetation now size 64102
Created cellZoneSet vegetation
    Applying source setToCellZone
    Adding all cells from cellSet vegetation ...
    cellZoneSet vegetation now size 64102
End

/*---------------------------------------------------------------------------*\
  =========                 |
  \\      /  F ield         | OpenFOAM: The Open Source CFD Toolbox
   \\    /   O peration     | Website:  https://openfoam.org
    \\  /    A nd           | Version:  8
     \\/     M anipulation  |
\*---------------------------------------------------------------------------*/
/*   Windows 32 and 64 bit porting by blueCAPE: http://www.bluecape.com.pt   *\
|  Based on Windows porting (2.0.x v4) by Symscape: http://www.symscape.com   |
\*---------------------------------------------------------------------------*/
Build  : 8-53cd1468e263
Exec   : setFields -region air
Date   : Nov 20 2024
Time   : 13:33:17
Host   : "FOAM2"
PID    : 45328
I/O    : uncollated
Case   : C:/MetaFoam_Cases/UMCF_CRVS_jmp01
nProcs : 1
SigFpe : Enabling floating point exception trapping (FOAM_SIGFPE).
fileModificationChecking : Monitoring run-time modified files using timeStampMaster (fileModificationSkew 10)
allowSystemOperations : Allowing user-supplied system call operations

// * * * * * * * * * * * * * * * * * * * * * * * * * * * * * * * * * * * * * //
Create time

Create mesh air for time = 0

Reading setFieldsDict

Setting field default values
    Setting internal values of volScalarField LAD

Setting field region values
    Adding all cells of cellZone vegetation ...
    Found matching zone vegetation with 64102 cells.
    Setting internal values of volScalarField LAD

End

