/*---------------------------------------------------------------------------*\
  =========                 |
  \\      /  F ield         | OpenFOAM: The Open Source CFD Toolbox
   \\    /   O peration     | Website:  https://openfoam.org
    \\  /    A nd           | Version:  8
     \\/     M anipulation  |
\*---------------------------------------------------------------------------*/
/*   Windows 32 and 64 bit porting by blueCAPE: http://www.bluecape.com.pt   *\
|  Based on Windows porting (2.0.x v4) by Symscape: http://www.symscape.com   |
\*---------------------------------------------------------------------------*/
Build  : 8-53cd1468e263
Exec   : solarRayTracingGen -region vegetation -parallel
Date   : Nov 20 2024
Time   : 13:36:58
Host   : "FOAM2"
PID    : 44220
I/O    : uncollated
Case   : C:/MetaFoam_Cases/UMCF_CRVS_jmp01
nProcs : 12
Slaves : 
11
(
"FOAM2.43320"
"FOAM2.39396"
"FOAM2.40156"
"FOAM2.30120"
"FOAM2.39732"
"FOAM2.34436"
"FOAM2.25820"
"FOAM2.44788"
"FOAM2.32428"
"FOAM2.36460"
"FOAM2.44128"
)

Pstream initialized with:
    floatTransfer      : 0
    nProcsSimpleSum    : 0
    commsType          : nonBlocking
    polling iterations : 0
SigFpe : Enabling floating point exception trapping (FOAM_SIGFPE).
fileModificationChecking : Monitoring run-time modified files using timeStampMaster (fileModificationSkew 10)
allowSystemOperations : Allowing user-supplied system call operations

// * * * * * * * * * * * * * * * * * * * * * * * * * * * * * * * * * * * * * //
Create time

Create mesh vegetation for time = 0


Creating single cell mesh...
[0] 
Created single cell mesh...
[5] 
Created single cell mesh...
[1] 
Created single cell mesh...
[7] 
Created single cell mesh...
[6] 
Created single cell mesh...
[8] 
Created single cell mesh...
[10] 
Created single cell mesh...
[9] 
Created single cell mesh...
[2] 
Created single cell mesh...
[4] 
Created single cell mesh...
[3] 
Created single cell mesh...
[11] 
Created single cell mesh...
howManyCoarseFacesPerPatch: 
15
(
0
0
0
0
49
0
369
20
0
0
0
0
0
0
0
)

howManyFineFacesPerPatch: 
15
(
0
0
0
0
486
0
369
1874
0
0
0
0
0
0
0
)


Total number of coarse faces: 6148
[0] 
View factor patches included in the calculation : 3(4 6 7)
nVisibleFaceFacesList: 
5
(
438{0}
438{0}
438{0}
438{0}
438{0}
)

nVisibleFaceFacesListFINE: 
5
(

2729
(
1
1
1
1
1
1
1
1
0
0
0
0
0
0
0
0
0
0
0
0
1
1
0
1
1
1
0
1
1
1
0
0
0
1
1
0
0
0
1
1
1
0
0
0
0
0
0
0
0
0
0
0
0
0
1
1
0
1
0
0
1
0
0
0
1
0
0
0
0
0
0
0
0
0
0
0
0
0
0
0
0
0
0
0
0
0
0
0
0
0
0
0
0
0
0
0
1
0
0
0
0
0
0
0
0
0
0
0
0
0
0
0
1
0
0
0
0
0
0
0
0
0
0
0
1
1
0
0
0
0
0
0
0
0
0
0
0
0
1
1
0
0
0
0
0
1
1
1
1
1
1
1
0
0
0
0
0
0
0
1
1
0
0
0
0
0
0
0
0
0
0
0
0
0
0
0
0
0
0
0
0
0
0
0
0
0
0
0
0
0
1
1
1
0
1
1
1
0
1
1
1
0
1
1
0
1
1
0
0
1
0
1
1
1
1
1
0
0
0
0
0
1
0
0
0
0
0
0
1
0
0
1
1
1
0
0
0
0
0
0
0
0
0
0
0
0
0
0
0
0
1
0
0
0
0
0
0
0
0
0
0
0
0
0
0
0
0
0
0
0
0
0
0
1
0
0
0
0
1
0
0
0
0
0
0
1
1
1
0
0
0
0
0
0
0
0
0
0
0
0
0
0
0
1
1
1
1
1
1
1
1
0
1
1
1
1
1
1
1
0
0
1
1
1
0
0
0
1
1
1
1
1
1
1
1
1
0
0
0
0
0
0
0
0
0
0
0
0
0
0
0
0
0
0
0
0
0
0
0
0
0
0
1
0
1
0
0
0
1
0
0
0
0
1
0
1
1
0
0
0
0
0
0
0
0
0
0
1
0
0
1
0
1
1
1
0
0
0
0
1
1
1
0
1
1
1
0
0
0
0
0
0
0
1
0
0
0
0
0
1
1
0
0
0
1
1
1
1
1
0
1
1
1
1
0
0
0
0
0
0
0
0
1
1
0
0
0
1
1
1
0
0
0
0
1
1
1
0
0
0
0
0
0
0
0
0
0
0
0
0
0
0
1
0
0
0
0
0
0
0
0
1
0
1
1
1
1
1
1
1
1
1
1
1
1
1
1
1
1
1
1
1
1
1
1
1
1
1
1
1
1
0
1
1
1
1
1
1
1
0
1
1
1
1
1
1
1
1
1
1
1
1
1
0
1
1
1
1
1
1
0
0
0
1
0
0
0
1
0
1
0
1
0
1
0
0
0
1
1
1
0
1
0
1
1
1
0
1
0
1
0
1
1
1
1
1
1
1
1
1
1
1
1
0
0
1
1
1
0
0
0
0
0
0
0
1
1
0
0
0
0
1
1
1
1
1
1
1
1
1
1
1
1
1
1
1
1
0
0
1
1
1
1
1
1
1
1
1
1
1
1
1
0
0
1
0
0
0
0
0
0
0
0
0
0
0
0
0
0
0
0
0
0
0
0
0
0
0
0
1
1
0
0
0
0
0
0
0
0
0
0
0
0
0
0
0
0
0
0
1
0
0
0
0
0
0
0
1
1
1
1
1
0
0
0
0
0
0
0
0
0
0
0
0
0
0
0
0
0
0
1
0
0
0
0
0
0
0
0
1
0
0
0
0
0
1
1
1
1
0
1
0
0
0
1
0
0
0
1
1
0
0
0
0
0
0
0
0
0
0
0
0
0
0
0
0
0
0
0
1
0
0
0
0
0
0
0
0
0
0
0
0
0
0
0
0
0
0
1
1
0
0
1
1
0
0
1
1
1
0
1
1
1
0
0
0
1
0
1
1
1
1
1
0
1
0
1
1
1
1
1
1
1
1
1
0
1
0
0
0
0
0
0
0
0
1
0
0
0
0
0
0
0
0
0
0
1
0
0
0
0
0
1
0
0
1
1
1
1
0
0
0
0
0
1
1
1
1
0
1
1
1
0
0
0
1
1
1
1
1
1
1
1
1
1
1
1
1
1
1
1
1
1
1
1
1
1
1
1
1
1
0
1
1
1
1
1
1
1
1
1
1
1
0
0
0
1
1
1
1
1
1
1
1
1
1
1
1
1
1
1
1
1
1
1
1
1
0
0
1
0
0
0
1
1
1
1
1
1
1
0
1
0
0
0
0
1
1
1
1
1
1
1
1
0
0
1
1
1
1
1
1
1
1
1
1
1
1
1
1
1
0
1
0
0
1
1
1
1
1
1
1
1
0
0
1
1
1
1
1
1
1
1
1
1
1
0
0
0
0
0
0
0
0
0
0
0
0
0
0
0
0
0
0
0
0
0
0
0
0
0
0
0
0
0
0
0
1
1
1
1
1
1
1
1
1
1
0
0
0
0
0
0
0
1
1
1
0
1
1
0
0
0
0
0
0
0
0
0
1
1
1
1
1
1
1
1
1
1
0
0
0
0
0
0
0
1
0
1
1
0
0
0
0
0
0
0
0
0
0
0
0
0
0
0
0
0
0
0
0
0
0
0
0
0
0
0
0
0
0
0
1
0
1
0
0
0
0
0
0
1
0
1
0
0
0
0
0
0
0
0
0
0
1
1
1
0
0
0
1
1
1
1
0
1
1
0
0
1
1
0
0
0
0
0
1
0
0
0
0
0
0
0
0
0
0
1
1
1
1
1
1
1
0
1
0
0
0
0
0
0
0
0
0
1
1
1
1
1
1
1
1
1
1
1
1
1
1
0
0
0
1
1
0
1
1
1
1
1
1
1
1
1
1
1
1
1
1
1
1
1
1
1
1
1
1
0
0
1
1
1
0
0
0
0
0
0
0
0
0
0
0
1
1
1
1
1
1
1
1
1
0
1
1
1
1
1
1
1
1
1
1
1
1
0
0
0
0
0
0
0
0
0
0
0
0
0
0
0
0
0
0
0
1
1
1
1
1
1
1
0
0
0
0
1
1
0
0
0
0
1
0
1
1
0
0
0
1
1
1
1
0
1
1
1
1
1
1
0
0
0
0
0
0
0
0
0
0
0
0
0
0
1
1
1
1
1
1
1
1
1
1
1
1
1
1
1
1
0
0
0
0
0
0
0
0
0
0
0
0
1
0
0
0
0
0
0
0
0
1
0
0
0
1
1
0
0
0
0
1
1
1
0
0
1
1
1
1
1
1
1
1
1
0
0
0
1
1
1
1
1
0
0
0
0
1
1
1
1
1
1
0
0
1
1
0
1
1
1
1
1
1
1
1
1
1
1
1
1
1
1
0
0
1
1
1
1
1
1
1
0
0
0
0
0
0
1
0
1
1
0
1
1
1
1
1
1
1
1
1
1
1
1
1
1
1
1
1
0
0
0
0
1
1
1
1
1
1
1
1
1
1
1
0
0
0
0
0
1
0
0
0
1
1
1
0
0
0
0
0
0
0
1
1
1
0
0
0
0
0
1
1
1
0
0
1
1
1
1
0
0
1
1
1
1
1
1
1
1
1
1
1
1
1
1
1
0
1
1
0
0
0
0
1
1
0
0
0
0
0
1
1
1
1
1
1
1
0
0
1
0
0
0
0
0
0
0
1
1
1
1
1
1
1
1
1
1
1
1
1
1
1
1
1
1
1
1
1
1
1
0
0
0
0
0
0
0
0
0
0
0
0
0
0
0
0
0
0
0
0
1
0
0
1
0
0
0
0
0
0
0
0
0
0
0
0
0
0
0
0
0
0
0
0
0
0
0
0
0
1
1
1
1
1
1
1
0
0
0
1
1
1
0
0
0
0
0
0
0
0
0
0
1
0
0
0
0
0
0
0
0
0
0
0
0
0
0
1
0
0
0
0
0
1
1
1
1
1
0
0
0
0
0
0
1
1
1
0
0
0
1
1
1
1
1
1
1
1
1
1
1
1
0
1
1
1
1
1
1
1
1
1
1
0
0
1
1
1
1
1
1
1
1
1
1
1
0
0
0
1
1
1
1
1
1
1
1
1
1
1
1
1
1
1
1
1
1
1
1
1
1
1
1
1
1
1
1
1
0
0
1
1
1
0
0
0
1
0
0
0
0
0
0
0
0
0
0
0
0
0
0
0
0
0
0
0
0
1
1
1
1
1
1
1
1
1
1
1
1
1
1
0
1
1
1
1
1
1
1
0
0
1
1
1
1
1
1
1
0
1
1
0
0
0
0
0
0
0
0
0
0
0
1
1
1
1
1
1
1
1
1
1
1
1
1
1
1
1
1
0
0
0
0
0
0
1
1
1
0
1
0
0
0
0
0
0
1
1
1
1
1
1
1
0
1
0
0
0
0
0
0
0
0
0
0
0
0
0
0
0
0
0
0
0
1
1
1
1
1
1
1
1
0
0
0
0
0
0
0
0
0
0
0
0
0
0
0
1
1
1
1
0
0
0
1
1
1
0
0
1
1
1
1
0
1
0
0
0
0
0
1
1
1
1
1
1
1
0
1
0
0
0
1
1
1
1
0
1
1
1
1
0
0
0
1
1
1
1
0
0
0
0
1
0
0
0
0
0
0
0
1
1
0
1
1
1
0
0
1
1
1
0
0
0
0
0
0
0
0
0
0
0
0
0
0
0
0
1
1
1
1
1
1
1
1
1
1
1
1
1
1
1
0
1
1
1
1
1
1
1
1
0
0
0
0
0
1
0
1
1
0
0
0
1
1
1
1
1
0
0
1
1
1
1
1
1
1
1
0
0
0
0
0
0
0
1
1
1
1
1
0
0
0
1
1
1
1
1
0
0
0
0
0
0
0
0
0
0
0
0
0
0
1
1
1
1
1
1
1
1
1
1
1
1
0
1
0
0
0
1
1
1
0
1
1
1
1
1
0
1
0
0
0
0
0
1
0
0
0
0
0
0
0
0
1
0
0
0
1
1
1
0
0
0
0
0
0
1
0
0
0
0
0
0
0
0
0
0
0
0
0
0
0
0
1
1
1
1
1
1
1
1
1
0
0
1
1
1
1
1
1
1
1
1
1
1
1
1
1
1
1
1
1
0
1
1
1
1
1
1
1
1
1
1
1
0
0
0
0
0
0
0
0
1
0
1
1
1
1
1
0
1
1
1
0
0
0
1
0
1
1
1
1
1
1
1
1
1
1
1
1
1
1
1
1
1
1
1
1
1
1
1
1
1
1
1
1
1
1
1
1
1
0
0
0
0
0
0
0
1
1
1
1
1
1
1
1
1
1
0
0
0
0
0
1
1
1
1
1
0
0
0
0
0
0
0
0
0
0
1
1
1
1
1
1
1
1
1
1
1
1
1
1
1
1
1
1
1
1
1
1
0
1
1
1
1
1
1
1
1
1
1
1
1
1
1
1
1
1
1
1
1
1
1
1
1
1
0
0
0
0
1
1
0
0
0
0
0
0
0
0
0
0
0
0
1
1
0
0
0
0
0
0
1
1
1
1
1
1
1
1
1
0
1
1
1
1
1
0
0
1
1
1
1
1
1
1
1
1
1
1
1
1
1
1
1
1
1
1
1
1
1
1
1
1
1
0
0
0
1
1
0
0
0
0
0
0
0
0
0
0
1
0
0
0
0
0
0
0
0
1
0
1
0
1
1
1
1
0
0
0
0
0
0
0
1
0
1
1
1
1
1
1
1
1
1
1
1
1
1
1
1
1
1
1
1
1
1
1
1
1
1
1
1
1
1
1
1
1
1
1
1
1
1
1
1
0
0
0
0
0
0
0
0
1
1
1
1
1
1
1
1
1
1
1
0
0
0
0
0
0
0
0
1
1
1
1
0
0
0
1
1
1
0
1
1
1
1
1
0
0
0
0
0
0
0
0
0
0
0
0
0
0
1
1
1
1
1
0
0
0
0
1
0
1
1
1
1
1
1
1
1
1
1
0
1
1
1
1
1
1
1
1
1
1
1
1
1
1
1
1
1
1
1
1
1
1
1
1
1
1
1
1
1
1
0
0
0
1
1
1
1
1
1
1
1
1
1
1
1
1
1
0
0
0
0
0
0
0
0
0
0
0
0
0
0
0
0
0
0
0
0
0
0
0
0
0
0
0
0
0
0
0
0
0
0
0
0
0
0
0
0
0
0
0
0
0
0
0
1
0
0
0
0
0
0
0
0
0
0
0
0
1
1
0
0
0
0
0
0
0
0
0
0
0
0
0
0
0
0
0
0
0
0
0
0
0
0
0
0
0
0
0
0
0
0
0
0
0
)


2729
(
1
1
1
1
1
1
1
1
0
0
0
0
0
0
0
0
0
0
0
0
0
0
0
1
0
0
0
0
1
0
0
0
0
0
1
0
0
0
1
1
1
0
0
0
1
0
0
0
0
0
0
0
0
0
1
1
0
1
1
0
1
0
0
0
1
0
0
0
0
0
0
0
0
0
0
0
0
0
0
0
0
0
0
1
0
0
0
0
0
0
0
0
0
1
1
1
1
1
1
0
0
0
0
0
0
0
0
0
0
0
0
0
0
0
0
0
0
0
0
0
0
0
0
0
1
0
0
0
0
0
1
1
0
0
0
0
0
0
0
0
0
0
0
0
0
0
0
1
1
1
0
0
0
0
0
0
0
0
0
1
1
1
0
0
0
0
0
0
0
0
0
0
0
0
0
0
0
0
0
0
0
0
0
0
0
0
0
0
0
1
0
0
0
0
1
1
1
0
0
1
1
0
1
1
1
1
1
0
0
1
0
1
1
1
1
1
0
0
0
1
1
0
0
0
0
0
0
0
0
0
0
0
1
0
1
1
0
0
0
0
0
0
0
0
0
0
0
0
0
0
1
0
0
0
0
0
0
0
0
0
0
0
0
0
0
0
0
0
0
0
0
0
1
1
1
1
1
1
1
1
1
1
1
0
0
1
1
1
0
0
0
0
0
0
0
0
0
1
0
0
0
0
0
1
1
1
1
1
1
1
1
1
1
1
1
1
1
1
1
1
1
1
1
1
1
1
1
1
1
1
1
1
1
1
1
1
1
1
1
1
1
1
1
1
1
1
1
1
1
1
1
1
1
1
1
1
1
1
1
1
0
0
1
0
0
0
0
0
1
1
0
0
0
0
1
1
1
0
0
0
0
0
0
0
0
0
0
1
0
0
1
1
0
1
1
0
0
0
0
0
1
0
0
1
1
1
0
0
0
0
0
0
1
1
1
1
0
0
0
1
1
0
0
1
1
1
1
1
1
0
1
1
1
1
0
0
0
0
0
0
0
0
0
0
0
0
0
1
1
1
0
0
0
0
1
1
1
1
1
1
1
1
1
0
0
0
0
0
1
1
1
0
1
0
0
0
0
0
0
0
0
1
1
1
1
1
1
1
1
1
1
1
1
1
1
1
1
1
1
1
1
1
1
1
1
1
1
1
1
1
1
1
1
1
1
1
1
1
1
1
1
1
1
1
1
1
1
1
1
1
1
1
1
1
1
1
1
1
1
1
1
1
1
1
1
1
1
1
1
1
1
1
1
1
1
1
1
1
1
1
1
1
1
1
1
1
1
1
1
1
1
1
1
1
1
1
1
1
1
1
1
1
1
1
1
1
1
1
1
1
1
1
1
1
1
1
1
1
1
1
1
1
1
1
1
1
1
1
1
1
1
1
1
1
1
1
1
1
1
1
1
1
1
1
1
1
1
1
1
1
1
1
1
1
1
1
1
1
1
1
1
1
1
1
1
1
1
1
1
1
1
1
1
1
1
1
1
1
1
1
1
1
1
1
1
1
1
1
1
1
1
1
1
1
1
1
1
1
1
1
1
1
1
1
1
1
1
1
1
1
1
1
1
1
1
1
1
1
1
1
1
1
1
1
1
1
1
1
1
1
1
1
1
1
1
1
1
1
1
1
1
1
1
1
1
1
1
1
1
1
1
1
1
1
1
1
1
1
1
1
1
1
1
1
1
1
1
1
1
1
1
1
1
1
1
1
1
1
1
1
1
1
1
1
1
1
1
1
1
1
1
1
1
1
1
1
1
1
1
1
1
1
1
1
1
1
1
1
1
1
1
1
1
1
1
1
1
1
1
1
1
1
1
1
1
1
1
1
1
1
1
1
1
1
1
1
1
1
1
1
1
1
1
1
1
1
1
1
1
1
1
1
1
1
1
1
1
1
1
1
1
1
1
1
1
1
1
1
1
1
1
1
1
1
1
1
1
1
0
1
1
1
0
0
0
1
1
1
1
1
1
1
1
1
1
1
1
1
1
1
1
1
1
1
1
1
1
1
1
1
1
1
1
1
1
1
1
1
1
1
1
1
1
0
0
1
1
1
1
1
1
1
1
1
1
1
1
1
1
1
1
1
1
1
1
1
1
0
0
0
0
1
1
1
1
0
1
1
1
1
1
1
0
0
0
0
1
0
1
0
1
1
1
1
0
0
1
1
1
1
1
1
1
1
1
1
1
1
1
0
0
0
1
0
0
1
1
1
1
1
1
1
0
0
0
1
1
1
1
1
1
0
0
0
0
0
0
0
0
0
0
0
0
0
0
0
0
0
0
0
0
0
0
0
0
0
1
0
1
1
1
1
0
1
1
0
0
1
1
1
1
1
1
1
1
1
1
0
0
0
0
0
0
0
1
1
1
1
1
1
1
0
0
0
0
0
0
0
0
1
1
1
1
1
1
1
1
1
1
0
0
0
0
0
0
0
1
0
1
1
1
0
0
0
0
0
0
0
0
0
0
0
0
0
0
0
0
0
0
0
0
0
0
1
1
0
0
1
0
1
1
1
1
1
1
1
1
1
1
1
1
0
1
1
0
0
1
0
0
0
0
0
0
1
1
0
0
0
0
1
1
0
0
0
1
1
1
0
1
1
0
0
0
0
0
0
0
0
0
0
0
0
0
0
0
0
1
1
1
1
1
0
0
0
0
0
0
0
0
0
0
0
0
0
0
1
1
1
1
1
1
1
1
1
1
1
1
1
0
0
0
1
1
0
1
1
1
1
1
1
1
1
1
1
1
1
1
1
1
1
1
1
1
1
1
1
1
1
1
1
1
0
0
1
0
0
0
0
0
0
0
0
1
1
1
1
1
1
1
1
1
0
1
1
1
1
1
1
1
1
1
1
1
1
1
0
0
0
0
0
0
0
0
0
0
0
0
0
0
0
0
0
0
1
1
1
1
1
1
1
0
1
0
0
0
0
0
0
0
0
1
0
1
1
0
0
0
0
0
1
1
0
0
0
1
1
1
1
0
0
0
0
0
0
0
0
0
0
0
0
0
0
0
0
0
0
0
0
1
0
1
1
1
0
1
0
1
1
0
0
0
0
0
0
0
0
0
0
0
0
0
0
0
0
0
0
0
0
0
1
0
0
0
1
1
0
0
0
0
0
1
1
0
0
0
0
0
1
1
1
1
0
0
0
0
0
1
1
1
1
1
0
0
0
0
1
1
1
1
0
1
0
0
1
1
0
1
1
1
1
1
1
1
1
1
1
1
1
1
1
1
0
0
0
0
1
1
1
0
1
0
0
0
0
0
0
1
0
1
1
0
1
1
1
1
1
0
0
0
0
1
1
1
1
1
1
1
1
0
0
0
0
1
1
0
0
0
0
0
0
1
0
1
0
0
0
0
0
0
0
0
0
0
0
0
0
0
0
0
0
1
1
1
1
1
0
0
0
0
0
1
1
1
1
0
1
1
1
1
0
0
1
1
1
1
1
1
1
1
1
1
1
1
1
0
0
0
1
1
0
0
0
0
1
1
0
0
0
0
0
1
1
1
1
1
1
1
0
0
1
1
1
0
0
1
1
0
1
1
1
1
1
1
1
1
1
1
1
1
1
1
1
1
1
1
1
1
1
1
1
0
0
0
0
0
0
0
0
0
0
1
1
1
1
1
1
1
1
1
1
1
1
0
1
0
0
0
0
0
0
0
0
0
0
0
0
0
1
0
0
0
0
1
1
1
1
1
1
1
1
1
1
1
1
1
1
1
1
1
1
1
1
1
1
1
1
1
1
1
1
1
1
1
0
0
0
0
0
1
1
1
1
0
0
0
0
0
0
0
0
0
0
0
1
1
1
1
1
0
1
0
0
0
0
1
0
0
0
0
0
1
1
1
1
1
1
1
1
1
1
1
0
0
1
1
1
1
1
1
1
1
1
1
0
0
1
1
1
1
1
1
1
1
0
1
1
0
0
0
1
1
1
1
1
1
1
1
1
1
1
1
1
1
1
1
1
1
1
1
1
1
1
1
1
1
1
1
1
0
1
1
1
1
1
1
1
1
0
0
0
0
0
0
0
0
0
0
0
0
0
1
0
0
0
0
0
0
1
1
1
1
1
1
1
1
1
1
1
1
1
1
0
1
1
1
1
1
1
1
0
1
1
1
1
1
1
1
1
0
1
1
0
0
0
0
0
0
0
0
0
0
0
1
1
1
1
1
1
1
1
1
1
1
1
1
1
1
1
1
0
1
1
1
0
0
0
0
0
0
0
0
0
0
0
0
0
1
0
0
1
1
1
0
0
1
0
0
0
0
0
0
0
0
0
0
0
0
0
0
0
0
0
0
0
1
1
1
1
1
1
1
1
0
0
0
0
0
0
0
0
0
0
0
0
0
0
0
1
0
0
1
0
0
0
1
1
1
0
0
1
1
1
1
0
1
0
0
0
0
0
0
0
0
0
0
0
1
0
0
0
0
0
0
0
0
0
0
1
0
0
0
0
0
0
0
0
0
0
1
0
0
0
0
0
0
0
0
1
0
0
1
1
1
1
1
1
0
0
1
1
1
1
1
0
0
0
0
0
0
0
1
1
1
0
0
0
0
1
1
1
1
1
1
1
1
1
1
1
1
1
1
1
1
1
1
1
1
1
1
1
1
1
0
0
0
0
0
0
1
1
1
0
0
0
0
0
1
1
0
0
0
0
0
0
0
1
1
1
0
0
0
0
0
0
0
1
0
0
1
1
0
0
0
1
1
1
1
1
0
0
0
1
0
0
1
0
0
0
0
0
0
0
1
1
1
1
1
1
1
1
1
1
1
1
1
1
1
1
1
1
1
1
1
1
1
1
0
1
0
1
0
0
0
0
0
1
0
0
0
0
0
0
0
0
1
0
0
0
0
1
1
0
0
0
0
0
0
1
0
0
0
0
0
0
0
0
1
1
0
0
0
0
0
0
1
1
1
1
1
1
1
1
0
0
0
1
1
1
1
1
1
1
1
1
1
1
0
0
0
0
1
1
1
0
1
0
1
1
1
1
0
0
1
1
1
0
0
0
0
0
0
0
0
1
0
1
1
1
1
1
0
1
1
1
0
0
1
1
0
1
1
1
1
1
1
1
1
1
1
1
1
1
1
1
1
1
1
1
1
1
1
1
1
1
1
1
1
1
1
1
1
1
0
0
0
0
0
0
0
1
1
1
1
1
1
1
1
1
1
0
0
1
1
1
1
1
1
1
1
0
0
0
0
0
0
0
0
0
0
1
1
1
1
1
1
1
1
1
1
1
1
1
1
1
1
1
1
1
1
1
1
0
1
1
1
1
1
1
1
1
1
1
1
1
1
1
1
1
1
1
1
1
1
1
1
1
1
0
0
0
0
1
1
0
0
0
0
0
0
0
0
0
0
0
0
1
1
0
0
0
0
0
0
1
1
1
1
1
1
1
1
1
0
1
1
1
1
0
0
0
1
1
1
1
1
0
1
1
1
1
1
1
1
1
1
0
1
1
0
1
1
1
1
1
1
1
0
0
0
0
0
0
0
0
0
0
0
0
0
0
0
1
0
0
0
0
0
0
0
0
1
1
1
1
1
1
1
1
1
1
0
0
0
0
0
1
0
1
1
1
1
1
1
1
1
1
1
1
1
1
1
1
1
1
1
1
1
1
1
1
1
1
1
1
1
1
1
1
1
1
1
1
1
1
1
1
0
0
0
0
0
0
0
0
1
1
1
1
1
1
1
1
1
1
1
0
0
0
0
0
0
0
1
1
1
1
1
0
1
1
1
1
1
1
1
1
1
1
1
0
0
0
0
0
0
0
0
0
0
0
1
0
0
1
1
1
1
1
1
1
1
1
1
1
1
1
1
1
1
1
1
1
1
1
0
1
1
1
1
1
1
1
1
1
1
1
1
1
1
1
1
1
1
1
1
1
1
1
1
1
1
1
1
1
1
1
0
0
1
1
1
1
1
1
1
1
1
1
1
1
1
1
1
1
1
0
0
0
0
0
0
1
0
1
1
1
1
0
1
1
1
1
0
0
0
0
0
0
0
0
0
0
0
0
0
0
1
1
0
1
0
0
1
1
1
1
1
1
1
1
1
1
0
0
1
1
1
1
1
0
1
1
1
1
1
0
0
1
0
0
0
0
0
0
0
0
0
0
0
0
0
0
1
1
1
1
1
1
1
1
1
1
1
1
1
1
1
0
1
)


2729
(
1
1
1
1
1
1
1
1
0
0
0
0
0
0
0
0
0
0
0
0
0
0
0
1
0
0
0
0
1
0
0
0
0
0
0
0
0
0
0
0
0
0
0
0
1
0
0
0
0
0
0
0
0
0
1
1
1
1
1
1
1
0
1
0
1
0
0
0
0
0
0
0
1
0
0
0
0
0
0
0
0
1
1
1
0
0
0
0
0
0
0
0
0
1
1
1
1
1
1
1
0
0
0
0
0
0
0
0
0
0
0
0
0
0
1
0
0
1
0
0
0
0
0
0
0
0
0
0
0
1
1
1
0
0
0
0
0
0
0
0
0
0
0
0
0
0
0
0
0
0
0
0
0
0
0
0
0
0
0
1
1
1
0
0
0
0
0
0
0
0
1
0
0
0
0
0
0
0
0
0
0
0
0
0
0
0
0
0
0
0
0
0
0
0
1
0
1
0
0
0
0
0
0
0
0
1
1
0
0
0
0
0
0
0
0
1
0
0
0
0
0
0
0
0
0
0
0
0
0
0
0
0
0
0
0
0
0
0
0
0
0
0
0
0
0
0
0
0
0
0
1
0
1
0
0
0
0
0
0
1
0
0
0
0
0
0
0
0
0
0
0
1
1
1
0
0
0
0
0
0
0
0
0
0
0
1
1
1
0
0
0
0
0
0
0
0
0
1
1
0
0
0
0
1
1
1
1
1
1
1
1
1
1
1
1
1
1
1
1
0
0
1
1
1
1
1
1
1
1
1
1
1
1
1
1
1
0
0
0
0
0
1
0
0
0
0
0
0
0
0
0
0
0
0
0
0
0
0
1
1
0
0
0
0
0
0
0
0
0
1
1
0
1
0
1
1
0
0
0
0
0
0
0
0
0
0
0
1
0
0
0
1
1
1
1
0
0
0
0
0
0
0
0
0
0
1
0
0
0
0
0
1
1
1
1
1
1
0
0
1
1
1
0
1
1
1
1
1
1
0
1
1
1
1
0
0
0
0
0
0
0
0
0
0
0
0
0
1
1
1
0
0
0
0
1
1
1
1
1
1
1
1
1
0
1
0
0
1
1
1
1
1
1
0
0
0
0
0
0
0
0
1
1
1
1
1
1
1
1
1
1
1
1
1
1
1
1
1
1
1
1
1
1
1
1
1
1
1
1
1
1
1
1
1
1
1
1
1
1
1
1
1
1
1
1
1
1
1
1
1
1
1
1
1
1
1
1
1
1
1
1
1
1
1
1
1
1
1
1
1
1
1
1
1
1
1
1
1
1
1
1
1
1
1
1
1
1
1
1
1
1
1
1
1
1
1
1
1
1
1
1
1
1
1
1
1
1
1
1
0
1
1
1
1
1
1
1
1
1
1
1
1
1
1
1
1
1
1
1
1
1
1
1
1
1
1
1
1
1
1
1
1
1
1
1
1
1
1
1
1
1
1
1
1
1
1
1
0
1
1
1
1
1
1
1
0
1
1
1
1
1
1
1
1
1
1
1
1
1
1
1
1
1
1
1
1
1
1
1
1
1
1
1
1
1
1
1
1
1
1
1
1
1
1
1
1
1
1
1
1
1
1
0
0
1
1
1
1
0
0
1
1
1
0
1
1
1
1
1
1
1
1
1
1
1
1
1
1
1
1
1
1
1
1
1
1
1
1
1
1
1
1
1
1
1
1
1
1
1
1
1
1
1
1
1
1
1
1
1
1
1
1
1
1
1
1
1
1
1
1
1
1
1
1
1
1
1
1
1
1
1
1
1
1
1
1
1
1
1
1
1
1
1
1
1
1
1
1
1
1
1
1
1
1
1
1
1
1
1
1
1
1
1
1
1
1
1
1
1
1
1
1
1
1
1
1
1
1
1
1
1
1
1
1
1
1
1
1
1
1
1
1
1
1
1
1
1
1
1
1
1
1
1
1
1
1
1
1
1
1
1
1
1
1
1
1
1
1
0
1
1
1
0
0
0
1
1
1
1
1
1
1
1
1
1
1
1
1
1
1
1
1
1
1
1
1
1
1
1
1
1
1
1
1
1
1
1
1
1
1
1
1
1
0
0
1
1
1
1
1
1
1
1
1
1
1
1
1
1
1
1
1
1
1
1
1
1
0
0
0
0
1
1
1
0
0
0
0
1
1
1
1
1
0
0
0
1
0
1
0
1
1
1
1
0
0
1
1
1
1
1
1
1
1
1
1
1
0
0
0
0
0
1
0
0
1
0
1
0
0
1
0
0
0
0
1
1
1
1
1
1
0
0
0
0
0
0
0
0
0
0
0
0
0
0
0
0
0
0
0
0
0
0
0
0
1
1
0
1
1
1
1
0
1
1
0
0
1
1
1
1
0
1
1
1
1
1
0
0
0
0
0
0
0
1
1
1
1
1
1
1
0
0
0
0
0
0
0
0
1
1
1
1
1
1
1
1
1
1
0
0
0
0
0
0
0
1
1
1
1
1
0
0
0
0
0
0
0
0
0
0
0
0
0
0
0
0
0
0
0
0
1
0
1
1
1
1
1
1
1
1
1
1
1
1
1
1
1
1
1
1
1
1
1
0
0
1
0
0
0
0
0
0
1
0
0
0
0
0
1
1
0
0
0
1
1
1
0
1
1
0
0
0
0
0
0
0
0
0
0
0
0
0
0
0
0
1
1
1
1
1
0
0
0
0
0
0
0
0
0
0
0
0
0
0
1
1
1
1
1
1
1
1
1
1
1
1
1
1
0
1
1
1
0
1
1
1
1
1
1
1
1
1
1
0
1
1
1
1
1
1
1
1
1
1
1
1
1
1
1
1
0
0
1
0
0
0
0
0
0
0
0
1
1
1
1
1
1
1
1
1
0
1
1
1
1
1
1
1
1
1
1
1
1
1
0
0
0
0
0
0
0
0
0
0
0
0
0
0
0
0
0
0
1
1
1
1
1
1
1
1
1
0
0
0
0
0
0
0
0
0
0
0
0
0
0
0
0
0
0
0
0
0
0
0
0
1
0
0
0
0
0
0
0
0
0
0
0
0
0
0
0
0
0
0
0
0
0
0
0
0
0
0
0
0
0
0
0
0
0
0
0
0
0
0
0
0
0
0
0
0
0
0
0
0
0
0
0
0
0
0
0
0
1
0
0
0
0
0
0
0
1
0
0
0
0
0
1
1
0
0
0
0
0
0
0
0
1
1
1
0
0
0
0
0
1
1
1
1
0
0
0
0
0
1
0
1
1
1
1
1
1
1
1
1
1
1
1
1
1
0
0
0
0
0
1
1
0
0
0
0
0
0
0
0
0
0
0
1
1
0
0
0
1
0
0
0
0
0
0
1
1
1
1
0
1
1
1
0
0
0
0
1
1
0
0
0
0
0
0
1
0
0
0
0
0
0
0
0
0
0
0
0
0
0
0
0
0
0
1
1
1
1
1
1
0
0
0
0
0
1
1
1
1
0
1
1
1
1
0
1
1
1
1
1
1
1
1
1
1
1
1
1
1
0
0
0
0
0
0
0
0
0
1
0
0
0
0
0
0
1
1
1
1
1
1
1
0
1
1
1
1
0
0
1
1
0
1
1
1
1
1
0
1
1
1
1
1
1
1
1
1
1
1
1
1
1
1
0
1
0
0
0
0
0
0
0
0
0
0
1
1
1
1
1
1
1
1
1
1
1
1
0
1
0
0
0
0
0
0
0
0
0
0
0
0
0
1
0
1
0
0
1
1
1
1
1
1
1
1
1
1
1
1
1
1
1
1
1
1
1
1
1
1
1
1
1
1
1
1
1
1
1
1
0
0
0
0
1
1
1
1
0
0
0
0
0
0
0
0
0
0
0
1
1
1
1
1
0
1
0
0
0
0
1
0
0
0
0
0
1
1
1
1
1
1
1
1
1
1
1
0
0
1
1
1
1
1
1
1
1
1
1
0
0
1
1
1
1
1
1
1
1
0
1
1
0
0
0
1
1
1
1
1
1
1
1
1
1
1
1
1
1
1
1
1
1
1
1
1
1
1
1
1
1
1
1
1
1
1
1
1
1
1
1
1
1
0
0
0
0
0
0
0
0
0
0
0
0
0
1
0
0
0
1
0
0
1
1
1
1
1
1
1
1
1
1
1
1
1
1
0
1
1
1
1
1
1
1
0
1
1
1
1
1
1
1
1
0
1
1
0
0
0
0
0
0
0
0
0
0
0
1
1
1
1
1
1
1
1
1
1
1
1
1
1
1
1
1
1
1
1
1
0
0
0
0
0
0
0
0
0
0
0
0
0
0
0
0
0
0
0
0
0
0
0
0
0
0
0
0
0
0
0
0
0
0
0
0
0
0
0
0
0
1
1
0
0
0
0
0
0
0
0
0
0
0
0
0
0
0
0
0
0
0
0
0
1
0
0
1
0
0
0
0
1
0
0
0
1
0
1
1
0
1
0
0
0
0
0
0
0
0
0
0
0
0
0
0
0
0
0
0
0
0
0
0
0
0
0
0
0
0
0
0
0
0
0
1
0
0
0
0
0
0
0
0
1
1
0
0
1
1
0
1
1
0
0
1
0
1
1
1
0
0
0
0
0
0
0
1
1
1
0
0
0
0
1
1
1
1
1
1
1
1
1
1
1
1
1
1
1
1
1
1
1
1
1
1
1
1
1
1
0
1
0
0
0
1
1
1
0
0
0
0
0
1
1
0
0
0
0
0
0
0
1
1
1
0
0
0
0
0
0
0
1
0
0
0
1
0
0
0
1
1
1
1
0
0
0
0
1
0
0
1
1
1
0
0
0
0
0
1
1
1
1
1
1
1
1
1
1
1
1
1
1
1
1
1
1
1
1
1
1
1
1
0
0
0
1
0
0
0
0
0
1
0
0
0
0
0
0
0
0
1
0
0
0
0
1
1
0
0
0
0
0
0
1
1
0
0
0
0
0
0
0
1
1
0
0
0
0
0
0
1
1
1
1
1
1
1
0
0
0
0
1
1
1
1
1
1
1
1
1
1
0
0
0
0
0
1
0
1
0
1
0
0
1
1
0
0
0
0
0
0
0
0
0
0
0
0
0
0
1
0
1
0
0
0
1
0
1
1
0
0
0
1
1
0
1
1
1
1
1
1
1
1
1
1
1
1
1
1
1
1
1
1
1
1
1
1
1
1
1
1
1
1
1
1
1
1
1
0
0
0
0
0
0
0
1
1
1
1
1
0
1
1
1
1
0
0
1
1
1
1
1
1
1
1
0
0
0
0
0
0
0
0
0
0
1
1
1
1
1
1
1
1
1
1
1
1
1
1
1
1
1
1
1
1
1
1
0
1
1
1
1
1
1
1
1
1
1
1
1
1
1
1
1
1
1
1
1
1
1
1
1
1
0
0
0
0
1
1
0
0
0
0
0
0
0
0
0
0
0
0
1
1
1
0
0
0
0
0
1
1
1
1
1
1
1
1
1
0
1
1
1
0
0
0
0
1
1
1
1
1
0
1
1
1
0
1
1
1
1
1
0
1
0
0
1
1
1
1
1
1
1
0
0
0
0
0
0
0
0
0
0
0
0
0
0
0
1
0
0
0
0
0
0
0
0
1
1
1
1
1
1
1
1
1
1
0
0
0
0
0
1
0
1
1
1
1
1
1
1
1
1
1
1
1
1
0
1
1
1
1
1
1
1
0
1
1
1
1
0
1
1
1
1
1
1
1
1
1
1
1
1
0
0
0
0
0
0
0
0
1
1
1
1
1
1
1
0
0
1
1
0
0
0
0
0
0
0
1
1
1
1
1
0
1
1
1
1
1
1
1
1
1
1
1
0
0
0
0
0
1
1
0
0
0
0
1
0
1
1
1
1
1
1
1
1
1
1
1
1
1
1
1
1
1
1
1
1
1
1
0
1
1
1
1
1
1
1
1
1
1
1
1
1
1
1
1
1
1
1
1
1
1
1
1
1
1
1
1
1
1
1
1
1
1
1
1
1
1
1
1
1
1
1
1
1
1
1
1
1
1
0
0
0
0
0
0
1
1
1
1
1
1
0
1
1
1
1
1
0
0
0
0
0
1
0
0
0
0
0
0
0
1
1
1
1
1
1
1
1
1
1
1
1
1
1
1
1
0
1
1
1
1
1
1
0
1
1
1
1
1
0
1
1
0
0
0
0
0
0
0
0
0
0
0
0
0
0
1
1
1
1
1
1
1
1
1
1
1
1
1
1
1
1
1
)


2729
(
1
1
1
1
1
1
1
1
0
0
0
0
0
0
0
0
0
0
0
0
0
0
0
0
0
0
0
1
0
0
0
0
0
0
0
0
0
0
0
0
0
0
0
0
1
0
0
0
0
0
0
0
0
0
1
0
1
1
1
1
0
1
1
1
1
1
0
0
1
0
1
0
1
1
0
0
0
0
0
0
0
1
1
1
0
0
0
0
0
0
0
0
0
0
1
1
1
0
1
1
0
0
0
0
0
0
0
1
1
1
0
0
0
0
1
0
1
1
0
1
0
0
0
0
0
0
0
0
0
1
1
1
1
1
1
0
0
0
0
0
0
0
0
0
0
0
0
0
0
0
0
0
0
1
1
1
1
1
1
1
1
1
1
1
1
0
1
0
1
1
1
0
0
0
0
0
0
0
0
0
1
1
1
0
0
0
0
0
0
0
0
0
0
0
0
0
0
0
0
0
0
0
0
0
0
0
0
0
0
0
0
0
0
0
0
0
0
0
0
0
0
0
0
0
0
0
0
0
0
0
0
0
0
0
0
0
0
0
0
0
0
0
0
0
0
0
0
0
0
0
0
1
1
0
0
0
0
0
0
1
1
1
0
0
0
0
0
0
0
0
0
1
0
0
0
0
0
0
0
0
0
0
0
0
0
0
0
0
0
0
0
0
0
0
0
0
0
1
1
1
1
1
1
0
1
1
0
1
1
1
0
0
0
0
0
0
0
0
0
0
0
0
1
0
0
0
0
0
0
0
0
0
0
1
0
0
0
0
0
0
0
0
0
0
0
0
0
0
0
0
0
0
0
0
0
0
0
0
0
0
0
1
0
0
0
1
0
0
0
1
1
1
1
1
1
1
1
0
0
0
0
0
0
1
0
0
0
1
1
1
1
1
1
1
1
0
0
0
0
0
0
0
0
0
0
0
0
0
0
0
0
1
1
1
1
1
1
0
0
1
1
1
0
1
1
1
1
1
1
0
1
0
1
1
0
0
0
0
0
0
0
0
0
0
0
0
0
1
1
1
1
1
0
1
1
1
1
1
1
1
1
1
1
1
1
1
1
1
1
1
0
1
0
1
1
1
1
1
1
1
1
0
0
0
0
0
1
1
1
1
1
1
1
1
1
1
1
1
1
1
1
1
1
1
1
1
1
1
1
1
1
1
1
1
1
1
1
1
1
0
1
1
1
0
0
0
0
1
1
1
1
1
1
1
1
1
1
1
1
1
1
1
0
0
0
0
0
0
0
0
0
0
1
1
0
1
1
1
1
1
1
1
1
1
1
1
1
1
1
1
1
1
1
1
1
1
1
1
1
0
0
0
0
0
0
1
1
1
0
0
0
0
0
0
0
1
1
1
0
1
1
1
1
1
1
1
0
0
1
1
1
1
1
1
1
1
1
0
0
1
0
0
1
1
1
1
1
1
1
1
1
1
1
1
0
0
0
0
0
0
1
1
0
0
0
0
0
0
0
0
0
0
0
0
0
1
0
1
1
1
1
1
1
1
1
0
0
0
0
0
0
0
0
1
0
0
1
1
0
1
1
1
1
1
1
1
1
1
1
1
0
0
0
0
0
0
0
0
0
0
0
0
0
0
0
0
0
0
0
0
1
1
1
0
0
1
0
1
1
1
0
0
0
0
0
1
1
1
1
1
1
1
1
1
1
1
1
1
1
1
1
1
1
1
1
1
1
1
1
1
1
1
1
1
1
1
1
1
1
1
1
1
1
1
1
1
1
1
1
1
1
1
1
0
1
1
1
1
1
1
1
1
1
1
1
1
1
1
1
1
1
1
1
1
1
1
1
1
1
1
1
1
1
1
1
1
1
1
1
1
1
1
1
1
1
1
1
1
1
1
1
1
1
1
1
1
1
1
1
1
1
1
1
1
1
1
1
1
1
1
1
1
1
1
1
1
1
1
1
1
1
1
1
1
1
1
1
0
0
1
1
0
0
0
0
1
1
1
1
1
1
1
1
1
1
1
1
1
1
1
1
1
1
1
1
1
1
1
1
1
1
1
1
1
1
1
1
1
1
1
1
1
1
0
0
1
1
1
1
1
1
1
1
1
1
1
1
1
1
1
1
1
1
1
1
1
1
0
0
0
0
1
1
0
0
0
0
0
1
1
1
1
1
0
0
0
1
0
1
0
1
1
1
1
0
0
1
1
1
1
1
1
1
1
1
1
0
0
0
0
0
0
1
0
0
1
0
0
0
0
0
0
0
1
0
0
1
1
0
0
0
0
0
0
0
0
0
0
0
0
0
0
0
0
0
0
0
0
0
0
0
0
0
0
0
1
1
1
1
1
1
1
1
1
1
0
0
1
1
1
1
0
1
1
0
0
0
0
0
0
0
0
0
0
1
1
1
1
1
1
1
1
1
0
0
0
0
0
1
1
0
0
0
1
0
0
0
0
0
0
0
0
0
0
0
0
1
1
1
1
1
0
0
0
0
0
0
0
0
0
0
0
0
0
0
0
0
0
0
0
1
1
0
1
1
1
1
1
1
1
1
1
1
1
1
1
1
1
1
1
1
1
1
1
1
1
1
0
0
0
0
0
0
1
0
0
0
0
0
1
1
0
0
0
1
1
1
0
1
1
0
0
0
0
0
0
0
0
0
0
0
0
0
0
0
0
1
1
1
1
1
0
0
0
0
0
0
0
0
0
0
0
0
0
0
1
1
1
1
1
1
1
1
1
1
1
1
1
1
1
1
1
1
0
1
1
1
1
1
1
1
1
1
1
0
1
1
1
1
1
1
1
1
1
1
1
1
1
1
1
1
1
1
1
0
0
0
0
1
1
1
1
1
1
1
1
1
1
1
1
1
1
1
1
1
1
1
1
1
1
1
1
1
1
1
0
0
0
0
0
0
0
0
0
0
0
1
0
0
0
0
0
0
1
1
1
0
1
1
1
1
1
1
1
0
0
0
0
0
0
0
0
0
0
0
0
0
0
0
0
0
0
0
0
0
0
0
0
0
0
0
0
0
0
0
0
0
0
0
0
0
0
0
0
0
0
0
0
0
0
0
0
0
0
0
0
0
0
0
0
0
0
0
0
0
0
0
0
0
0
0
0
0
0
0
0
0
1
1
0
0
0
0
0
0
1
0
0
0
0
0
0
0
0
0
0
0
0
0
0
0
0
0
0
0
0
0
0
0
0
0
0
0
0
1
1
1
1
1
0
0
0
0
0
0
0
1
1
1
1
1
1
1
1
1
1
1
1
1
1
0
0
0
0
0
1
1
0
0
0
0
0
0
0
0
0
0
0
0
1
0
0
0
0
0
0
0
0
0
0
0
1
1
0
0
0
1
1
0
0
0
0
0
0
0
0
0
0
0
0
0
0
0
0
0
0
0
0
0
0
0
0
0
0
0
0
0
0
0
1
1
1
1
1
1
0
0
0
0
0
1
1
1
1
0
1
1
1
1
0
1
1
1
1
1
1
1
1
1
1
0
1
1
1
0
0
0
0
0
0
0
0
0
0
0
0
0
0
0
0
1
1
1
1
1
1
1
0
1
1
1
1
0
0
1
1
0
1
1
0
1
0
0
0
1
1
1
1
1
1
1
0
1
1
0
1
0
1
0
0
0
0
0
0
0
1
1
0
0
0
1
1
1
1
1
1
1
1
1
1
1
1
0
1
0
0
0
0
0
0
0
0
0
0
0
0
1
1
0
1
0
1
1
1
1
1
1
1
1
1
1
1
1
1
1
1
1
1
1
1
1
1
1
1
1
1
1
1
1
1
1
1
1
1
1
1
1
0
1
1
1
1
0
0
0
0
0
0
0
0
0
0
0
1
1
1
1
1
0
1
0
0
0
1
1
0
0
0
0
0
1
1
1
1
1
1
1
1
1
1
1
0
0
1
1
1
1
1
1
1
1
1
1
0
0
1
1
1
1
1
1
1
1
0
1
1
0
0
0
1
1
1
1
1
1
1
1
1
1
1
1
1
1
1
1
1
1
1
1
1
1
1
1
1
1
1
1
1
1
1
1
1
1
1
1
1
1
0
0
0
0
0
0
0
0
0
0
0
0
0
1
0
0
0
1
0
0
1
1
1
1
1
1
1
1
1
1
1
1
1
1
1
1
1
1
1
1
1
1
1
1
1
1
1
1
1
1
1
1
1
1
0
0
0
0
0
1
0
1
0
0
0
1
1
1
1
1
1
1
1
1
1
1
1
1
1
1
1
1
1
1
1
1
0
1
0
0
0
0
0
0
0
0
0
0
0
0
0
0
0
0
0
0
0
0
0
0
0
0
0
0
0
0
0
0
0
0
0
0
0
1
1
0
0
0
0
0
0
0
0
0
0
0
0
0
0
0
0
0
1
0
0
0
0
0
0
0
0
0
0
0
0
0
0
0
0
0
0
0
1
0
1
1
0
1
0
0
0
1
0
0
0
0
0
0
0
0
0
0
0
0
0
0
0
0
0
0
0
0
0
0
0
0
0
0
0
0
0
1
0
0
0
0
0
0
0
0
1
1
0
0
0
1
0
1
1
0
0
1
0
0
1
1
0
0
0
1
1
0
1
1
1
1
0
1
1
1
1
1
1
1
1
1
1
1
1
1
1
1
1
1
1
1
1
1
1
1
1
1
1
1
1
1
0
1
1
0
0
0
0
1
0
0
0
0
0
1
1
0
0
0
0
0
0
0
1
1
1
0
0
0
0
0
0
0
1
0
0
0
0
0
0
0
1
1
1
1
0
0
0
0
1
1
1
1
1
1
0
0
1
1
1
1
1
1
1
1
1
1
1
1
1
1
1
1
1
1
1
1
1
1
1
1
1
1
1
0
0
0
0
0
0
0
0
0
1
0
0
0
0
0
0
0
0
1
0
0
0
0
1
1
0
0
0
0
0
0
1
1
0
1
0
0
0
0
0
1
1
1
1
0
0
0
1
1
1
1
1
1
1
0
0
0
0
0
1
1
0
1
1
1
1
1
1
1
0
0
0
0
0
0
0
0
0
1
0
0
0
0
0
0
0
0
0
0
0
0
0
0
0
0
0
0
1
0
0
0
0
0
1
0
0
0
0
0
0
1
1
0
1
1
1
1
1
1
1
1
1
1
1
1
1
1
1
0
1
1
1
1
1
1
1
1
1
1
1
1
1
1
1
1
1
0
0
0
0
0
0
0
1
1
1
1
1
0
0
0
0
1
0
0
1
1
1
1
1
1
1
1
0
0
0
0
0
0
0
0
0
0
1
1
1
1
1
1
1
1
1
1
1
1
1
1
1
1
1
1
1
1
1
1
0
1
1
1
1
1
1
1
1
1
1
1
1
1
1
1
1
1
1
1
1
1
1
1
1
1
0
0
0
0
1
1
0
1
0
0
0
0
1
0
0
0
0
0
1
1
1
0
1
0
0
0
1
1
1
1
1
0
1
1
1
0
1
1
1
0
0
0
0
1
1
1
1
1
0
0
1
0
0
0
0
0
0
0
0
0
0
0
1
1
1
1
1
1
1
0
0
0
0
0
0
0
0
0
0
0
0
0
0
0
0
0
0
0
0
0
0
0
0
1
1
1
1
1
1
1
1
1
1
0
0
0
0
0
1
0
1
1
1
1
1
1
1
1
1
1
1
0
0
0
1
1
1
1
0
0
1
0
1
1
1
1
0
1
1
1
1
1
0
1
1
1
1
1
1
0
0
0
0
0
0
0
0
1
1
1
1
1
1
1
0
0
1
1
0
0
0
0
0
0
0
1
1
1
1
1
0
1
1
1
1
1
1
1
1
1
1
1
0
0
0
0
0
1
1
0
0
0
0
1
0
1
1
1
1
1
1
1
1
1
1
1
1
1
1
1
1
1
1
1
1
1
1
0
1
1
1
1
1
1
1
1
1
1
1
1
1
1
1
1
1
1
1
1
1
1
1
1
1
1
1
1
1
1
1
1
1
1
1
1
1
1
1
1
1
1
1
1
1
1
1
1
1
1
1
0
0
0
0
0
1
1
1
1
1
1
1
1
1
1
1
1
0
0
0
0
1
1
1
0
0
0
0
0
0
1
1
1
1
1
1
1
1
1
1
1
1
1
1
1
1
1
1
1
1
1
1
1
1
1
1
1
1
1
1
1
1
0
0
0
0
1
0
0
0
0
0
0
0
0
0
1
1
1
1
1
1
1
1
1
1
1
1
1
1
1
1
1
)


2729
(
0
0
0
0
0
0
0
0
0
0
0
0
0
0
0
0
0
0
0
0
0
0
0
0
0
0
0
1
0
0
0
0
1
1
0
0
0
1
0
0
0
0
0
0
1
0
0
0
0
0
0
0
0
0
0
0
0
1
0
0
0
0
0
0
1
0
0
0
1
0
0
0
1
1
1
0
0
0
1
0
0
1
1
1
0
0
0
0
0
0
0
0
0
0
0
0
0
0
0
0
0
0
0
0
0
0
0
0
0
0
0
0
0
0
0
0
1
1
1
1
1
0
0
0
0
0
0
0
0
0
0
0
1
1
0
0
1
1
0
0
0
0
0
0
0
0
0
0
0
0
0
0
0
0
0
0
0
0
0
1
1
1
0
0
0
0
0
0
0
0
0
0
0
0
0
0
0
0
0
0
1
1
1
1
0
0
1
1
1
1
0
0
0
0
0
0
0
0
0
0
0
0
0
0
0
0
0
0
0
0
0
0
0
0
0
0
0
0
0
0
0
0
0
0
0
0
0
0
0
0
0
0
0
0
0
0
0
1
0
0
0
0
0
0
0
0
0
0
0
0
0
1
0
0
0
0
1
0
1
1
1
0
0
0
0
0
0
0
0
0
0
0
0
0
0
0
0
0
0
0
0
0
0
0
0
0
0
0
0
0
0
0
0
0
0
0
0
0
0
0
0
0
1
0
0
0
0
0
0
0
0
0
0
0
0
0
0
0
0
0
0
0
0
0
1
1
1
0
0
0
0
0
0
0
0
0
0
0
0
0
0
0
0
0
0
0
0
0
0
0
0
0
0
0
0
0
0
0
0
0
1
1
1
0
1
1
1
0
1
1
1
1
1
1
1
1
1
0
0
0
0
1
1
1
1
1
0
1
1
1
1
0
1
0
1
0
0
0
0
0
0
0
0
0
0
0
0
1
0
0
0
0
1
1
0
1
1
0
0
1
1
1
0
1
1
1
0
0
0
0
1
0
0
0
0
0
0
0
0
0
0
0
0
0
1
0
0
1
1
1
0
0
0
0
0
0
0
1
1
1
0
0
0
0
0
0
0
0
0
0
0
0
0
0
0
0
0
0
0
0
0
0
0
0
0
0
0
0
0
0
0
0
0
0
0
0
0
0
0
0
0
0
0
0
0
0
0
0
0
0
0
0
1
0
0
1
0
0
0
0
1
1
1
0
0
0
0
0
0
0
1
0
1
0
1
1
1
1
0
0
1
0
0
0
0
0
0
0
0
0
0
0
0
0
0
0
0
0
0
0
0
0
0
1
0
1
0
1
1
1
1
1
0
1
1
1
1
0
0
0
0
0
0
0
0
1
1
1
0
0
0
0
0
0
0
1
1
0
0
0
0
1
1
1
1
1
0
0
0
0
0
0
0
0
0
0
0
0
0
1
0
0
0
0
0
0
0
0
0
0
1
0
1
0
0
0
0
0
0
0
0
0
0
0
0
0
0
0
0
0
0
0
0
0
0
1
0
0
0
1
0
1
0
0
0
0
0
0
0
0
0
0
0
0
0
0
0
0
0
0
0
0
0
0
1
0
1
1
0
1
0
0
0
0
0
0
0
0
0
0
0
0
0
0
0
0
0
0
0
0
1
0
0
0
0
0
0
0
0
1
0
0
0
0
0
1
1
1
1
1
1
1
1
1
1
1
1
1
1
1
1
1
1
1
0
1
1
0
1
1
1
0
1
1
1
1
1
1
1
1
1
1
1
1
0
1
1
1
1
1
1
1
1
0
0
1
1
1
1
1
1
1
1
1
0
1
1
1
1
1
1
1
1
1
1
1
1
1
1
1
1
1
1
1
1
1
1
1
1
1
1
1
1
1
1
1
1
1
1
1
1
1
1
1
1
1
1
1
0
1
1
1
1
1
1
1
1
1
1
1
1
1
1
1
1
1
1
1
1
1
1
1
0
0
1
1
1
0
0
1
1
0
0
0
0
1
1
1
1
1
1
1
1
1
1
1
1
1
1
1
1
1
1
1
1
1
0
1
0
1
0
1
1
1
0
0
0
0
0
1
0
1
1
0
0
1
1
1
1
1
1
1
1
1
1
1
1
1
1
1
1
1
1
1
1
1
1
0
0
0
0
1
1
0
0
0
0
0
1
1
1
1
1
0
0
0
1
0
1
0
1
1
1
1
0
0
1
1
1
1
1
1
1
1
1
0
0
0
0
0
0
0
1
0
0
1
0
0
0
0
0
0
0
1
0
0
0
0
0
0
0
0
0
0
0
0
0
0
0
0
0
0
0
0
0
0
0
0
0
0
0
0
0
0
0
0
1
0
1
1
1
1
1
1
1
0
0
1
0
1
0
0
1
1
0
0
0
0
0
0
0
0
0
0
1
1
1
1
1
1
1
1
1
0
0
0
0
0
1
0
0
0
0
0
0
0
0
0
0
0
0
0
0
0
0
0
1
1
1
1
1
1
0
0
0
0
0
0
0
0
0
0
0
0
0
0
0
0
0
0
0
0
0
1
1
0
1
1
0
1
1
1
1
1
1
1
1
1
1
1
1
1
1
1
1
1
1
0
0
0
0
0
1
1
0
0
0
0
0
0
1
0
0
0
1
1
1
1
1
0
0
0
0
0
0
0
0
0
0
0
0
0
0
0
0
0
1
1
0
0
0
0
0
0
0
0
0
0
0
0
0
0
0
0
0
1
1
1
1
1
1
1
1
1
1
1
1
1
1
1
1
1
1
0
1
1
1
1
1
0
0
0
0
0
0
1
1
1
1
1
1
1
1
1
1
1
1
1
1
1
1
1
1
1
0
0
0
0
1
1
1
1
1
1
1
1
1
1
1
1
1
1
1
1
1
1
1
1
1
1
1
1
1
1
1
0
0
0
0
0
0
0
0
0
0
1
1
1
1
1
0
0
0
1
1
1
0
1
1
1
1
1
1
1
0
0
0
0
0
0
0
0
0
0
0
0
0
0
0
0
0
0
0
0
0
0
0
0
0
0
0
0
0
0
0
0
0
0
0
0
0
0
0
0
0
0
0
0
0
0
0
0
0
0
0
0
0
0
0
0
0
0
0
0
0
0
0
0
0
0
0
0
0
0
0
0
0
1
1
0
0
0
0
0
0
1
0
1
0
0
0
0
0
0
0
0
0
0
0
0
0
0
0
0
0
0
0
0
0
0
0
0
0
0
1
1
1
1
1
0
0
0
0
0
0
0
1
1
1
1
1
1
1
1
1
1
1
1
1
0
0
0
0
0
0
0
0
0
0
0
0
0
0
0
0
0
0
0
0
0
0
0
0
0
0
0
0
0
0
0
0
0
0
0
0
0
0
0
0
0
0
0
0
0
0
0
0
0
0
0
0
0
0
0
0
0
0
0
0
0
0
0
0
0
0
0
0
0
0
1
1
1
1
1
1
0
0
0
0
0
1
1
1
1
0
1
1
1
1
0
1
0
0
1
0
0
0
0
1
0
0
1
1
0
0
0
0
0
0
0
0
0
0
0
0
0
0
0
0
0
1
1
1
1
1
1
1
0
1
1
1
1
0
0
1
1
0
0
0
0
0
0
0
0
0
0
1
1
0
0
0
0
0
0
0
0
0
0
0
0
0
0
0
0
0
0
0
0
0
0
1
1
1
1
1
1
1
1
1
1
1
1
1
1
0
0
0
0
0
0
1
0
0
0
0
0
0
1
1
1
0
0
1
1
1
1
1
1
1
1
1
1
1
1
1
1
1
1
1
1
1
1
1
1
1
1
1
1
1
1
1
1
1
1
1
1
1
0
1
1
1
1
0
1
0
1
0
0
0
0
0
0
0
1
1
1
1
1
1
1
0
0
0
1
0
0
0
0
0
0
1
1
1
1
1
1
1
1
0
1
0
0
0
1
1
1
1
1
1
1
1
1
1
0
0
1
1
1
1
1
1
1
1
0
1
1
0
0
0
1
1
1
1
1
1
1
1
1
1
1
1
1
1
1
1
1
1
1
1
1
1
1
1
1
1
1
1
1
1
1
1
1
1
1
1
1
1
1
0
0
0
0
0
0
0
0
0
0
0
0
1
0
0
0
1
1
1
0
1
1
1
1
1
1
1
1
1
1
1
1
1
1
1
1
1
1
1
1
1
1
1
1
1
1
1
1
1
1
1
1
1
0
0
0
0
0
1
1
1
0
0
0
1
1
1
1
1
1
1
1
1
1
1
1
1
1
1
1
1
1
1
1
1
1
1
0
0
0
0
0
0
0
0
0
0
0
0
0
0
0
0
0
0
0
0
0
0
0
0
0
0
0
0
0
0
0
0
0
0
0
1
1
0
0
0
0
0
0
0
0
0
0
0
0
0
0
0
0
0
1
1
1
1
0
0
1
0
0
0
0
0
0
1
0
0
0
0
1
1
1
0
1
1
0
1
0
0
0
1
0
0
0
0
0
0
0
0
0
0
0
0
0
0
0
0
0
0
0
0
0
0
0
0
0
0
0
0
0
1
0
0
0
0
0
0
0
0
1
1
0
0
0
1
0
0
1
0
0
1
0
0
1
1
0
0
0
1
1
0
1
1
1
1
1
1
1
1
1
1
1
1
1
1
1
1
1
1
1
1
1
0
0
1
1
1
1
1
1
1
1
1
1
1
1
1
1
0
0
0
0
1
0
0
0
0
0
1
1
0
0
0
0
0
0
0
1
1
1
0
0
0
0
0
0
1
1
0
0
0
0
0
0
0
1
1
1
1
0
0
0
0
1
1
1
1
1
1
1
0
1
1
1
1
1
1
1
1
1
1
1
1
1
1
1
1
1
1
1
1
1
1
1
1
1
1
1
0
0
0
0
0
0
0
0
0
1
0
0
0
0
0
0
1
0
1
1
1
1
0
1
1
0
0
0
0
0
0
1
1
0
1
0
0
0
0
0
1
1
1
1
1
0
1
1
1
1
1
1
1
0
0
0
0
0
0
0
0
0
0
0
0
0
1
0
0
0
0
0
0
0
0
0
0
0
0
0
0
0
0
0
0
0
0
0
0
0
0
0
0
0
0
0
0
1
0
0
0
0
0
0
0
0
0
0
0
0
1
1
0
1
0
0
0
1
0
0
1
1
1
1
1
0
1
0
0
0
0
1
0
0
0
0
1
0
1
1
1
1
1
1
1
1
0
0
0
0
0
0
0
0
1
1
1
1
0
0
0
0
0
0
0
1
1
1
1
1
1
1
1
0
0
0
0
0
0
0
0
0
0
1
1
1
1
1
1
1
1
1
1
1
1
1
1
1
1
1
1
1
1
1
1
0
1
1
1
1
1
1
1
1
1
1
1
1
1
1
1
1
1
1
1
1
1
1
1
1
1
1
1
0
1
1
1
1
1
0
0
0
0
1
1
0
0
1
0
1
1
1
0
1
1
1
1
1
1
1
1
1
0
0
1
0
0
0
0
0
0
0
0
0
0
1
1
1
1
0
0
0
0
0
0
0
0
0
0
0
0
0
0
0
1
0
1
1
1
1
0
0
0
0
0
0
0
0
0
0
0
0
0
0
0
0
0
0
0
0
0
0
0
0
1
1
1
1
1
1
1
1
1
1
0
0
0
0
0
1
0
0
0
0
1
1
1
1
1
1
1
0
0
0
0
0
1
0
0
0
0
0
0
0
1
0
0
0
0
0
0
0
1
0
1
1
1
1
1
1
0
0
0
0
0
0
0
0
0
0
0
1
1
1
1
0
0
0
0
0
0
0
0
0
0
0
1
1
1
1
1
1
1
1
1
1
1
1
1
1
1
1
1
0
0
0
0
0
1
1
0
1
0
0
1
0
0
1
1
1
1
1
1
1
1
1
1
1
1
1
1
1
1
1
1
1
1
1
1
1
1
1
1
1
1
1
1
1
1
1
1
1
1
1
1
1
1
1
1
1
1
1
1
1
1
1
1
1
1
1
1
1
1
1
1
1
1
1
1
1
1
1
1
1
1
1
1
1
1
0
0
0
0
0
0
1
0
1
1
1
1
0
1
1
1
1
0
0
0
0
0
0
0
0
0
0
0
0
0
0
1
1
1
1
1
0
1
1
1
1
1
1
1
1
1
1
1
1
1
1
1
1
1
1
1
1
1
1
1
0
0
1
0
0
0
0
0
1
0
0
0
0
0
0
0
0
1
1
1
1
1
1
1
1
1
1
1
1
1
1
1
1
1
)

)

sunViewCoeff: 
5
(

438
(
501.05251
92.200163
140.26651
81.629947
69.765178
52.359275
314.00008
501.05251
501.05251
296.18327
451.2089
82.576018
129.58738
122.6888
187.09191
379.46505
59.479779
494.36987
484.12978
222.87955
82.598506
49.954745
51.735609
58.399101
86.170371
116.43213
86.625627
495.3263
117.28413
99.702176
501.05251
498.84895
501.05251
332.03417
144.88008
117.00984
87.634714
72.244808
55.031464
83.936679
67.341443
501.05251
0
448.05974
499.92411
374.14785
162.46464
194.0469
487.84871
87.179411
87.179411
87.179411
87.179411
87.179411
87.179411
87.179411
87.179411
87.179411
87.179411
87.179411
87.179411
87.179411
87.179411
87.179411
87.179411
87.179411
87.179411
87.179411
87.179411
87.179411
87.179411
87.179411
87.179411
87.179411
0
501.05251
87.179411
87.179411
501.05251
87.179411
87.179411
87.179411
0
501.05251
501.05251
501.05251
87.179411
87.179411
87.179411
87.179411
87.179411
87.179411
87.179411
501.05251
87.179411
501.05251
0
501.05251
501.05251
501.05251
501.05251
87.179411
87.179411
0
0
0
87.179411
0
0
0
87.179411
0
87.179411
0
87.179411
0
87.179411
0
0
0
87.179411
87.179411
87.179411
0
87.179411
0
501.05251
87.179411
501.05251
0
501.05251
0
501.05251
0
501.05251
87.179411
501.05251
501.05251
501.05251
501.05251
87.179411
87.179411
87.179411
87.179411
87.179411
87.179411
0
0
501.05251
501.05251
501.05251
0
0
0
0
0
0
0
501.05251
501.05251
0
0
0
0
501.05251
501.05251
501.05251
501.05251
501.05251
87.179411
87.179411
87.179411
87.179411
87.179411
87.179411
87.179411
87.179411
87.179411
87.179411
87.179411
0
0
501.05251
87.179411
87.179411
87.179411
87.179411
87.179411
87.179411
87.179411
87.179411
87.179411
87.179411
501.05251
87.179411
0
0
87.179411
0
0
0
0
0
0
0
0
0
0
0
0
0
0
0
0
0
0
0
0
0
0
0
0
501.05251
87.179411
0
0
0
0
0
0
0
0
0
0
0
0
0
0
0
0
0
0
87.179411
0
0
0
0
0
0
0
501.05251
87.179411
501.05251
87.179411
87.179411
0
0
0
0
0
0
0
0
0
0
0
0
0
0
0
0
0
0
501.05251
0
0
0
0
0
0
0
0
501.05251
0
0
0
0
0
501.05251
501.05251
501.05251
501.05251
0
501.05251
0
0
0
501.05251
0
0
0
501.05251
501.05251
0
0
0
0
0
0
0
0
0
0
0
0
0
0
0
0
0
0
0
501.05251
0
0
0
0
0
0
0
0
0
0
0
0
0
0
0
0
0
0
501.05251
501.05251
0
0
501.05251
501.05251
0
0
501.05251
501.05251
501.05251
0
501.05251
501.05251
501.05251
0
0
0
501.05251
0
501.05251
501.05251
501.05251
501.05251
501.05251
0
501.05251
0
501.05251
501.05251
501.05251
501.05251
501.05251
501.05251
501.05251
501.05251
501.05251
0
501.05251
0
0
0
0
0
0
0
0
501.05251
0
0
0
0
0
0
0
0
0
0
501.05251
0
0
0
0
0
501.05251
0
0
501.05251
501.05251
501.05251
501.05251
0
0
0
0
0
501.05251
80.844609
511.9011
0
290.71455
26.344066
181.7892
45.527319
62.439708
502.63175
306.32098
137.65469
0
158.16087
231.29507
0
5.6778618
0
9.871956
61.5673
57.327267
)


438
(
284.54856
51.388963
190.30897
64.05825
27.879678
31.190692
102.44719
284.54856
198.25979
64.358249
123.32556
41.613304
47.074701
54.43378
205.49725
282.91899
32.385206
284.54856
284.54856
278.3519
79.511019
44.78485
28.473628
109.10734
34.205961
34.961625
169.49918
269.72136
273.13629
32.893209
284.54856
284.54856
284.54856
43.048002
274.80712
31.685933
26.097523
282.00461
28.021661
108.17318
284.54856
284.54856
284.54856
150.07498
283.14113
180.43933
58.454953
196.55224
284.54856
50.690264
50.690264
50.690264
50.690264
50.690264
50.690264
50.690264
50.690264
50.690264
50.690264
50.690264
50.690264
50.690264
50.690264
50.690264
50.690264
50.690264
50.690264
50.690264
50.690264
50.690264
50.690264
50.690264
50.690264
50.690264
23.719504
284.54856
50.690264
50.690264
284.54856
50.690264
50.690264
50.690264
23.719504
284.54856
284.54856
284.54856
50.690264
50.690264
50.690264
50.690264
50.690264
50.690264
50.690264
284.54856
50.690264
284.54856
23.719504
284.54856
284.54856
284.54856
284.54856
50.690264
50.690264
23.719504
23.719504
23.719504
50.690264
23.719504
23.719504
23.719504
50.690264
23.719504
50.690264
23.719504
50.690264
23.719504
50.690264
23.719504
23.719504
23.719504
50.690264
50.690264
50.690264
23.719504
50.690264
23.719504
284.54856
50.690264
284.54856
23.719504
284.54856
23.719504
284.54856
23.719504
284.54856
50.690264
284.54856
284.54856
284.54856
284.54856
50.690264
50.690264
50.690264
50.690264
50.690264
50.690264
23.719504
23.719504
284.54856
284.54856
284.54856
23.719504
23.719504
23.719504
23.719504
23.719504
23.719504
23.719504
284.54856
284.54856
23.719504
23.719504
23.719504
23.719504
284.54856
284.54856
284.54856
284.54856
284.54856
50.690264
50.690264
50.690264
50.690264
50.690264
50.690264
50.690264
50.690264
50.690264
50.690264
50.690264
23.719504
23.719504
284.54856
50.690264
50.690264
50.690264
50.690264
50.690264
50.690264
50.690264
50.690264
50.690264
50.690264
284.54856
50.690264
23.719504
23.719504
50.690264
23.719504
23.719504
23.719504
23.719504
23.719504
23.719504
23.719504
23.719504
23.719504
23.719504
23.719504
23.719504
23.719504
23.719504
23.719504
23.719504
23.719504
23.719504
23.719504
23.719504
23.719504
23.719504
23.719504
23.719504
284.54856
50.690264
23.719504
23.719504
23.719504
23.719504
23.719504
23.719504
23.719504
23.719504
23.719504
23.719504
23.719504
23.719504
23.719504
23.719504
23.719504
23.719504
23.719504
23.719504
50.690264
23.719504
23.719504
23.719504
23.719504
23.719504
23.719504
23.719504
284.54856
50.690264
284.54856
50.690264
50.690264
23.719504
23.719504
23.719504
23.719504
23.719504
23.719504
23.719504
23.719504
23.719504
23.719504
23.719504
23.719504
23.719504
23.719504
23.719504
23.719504
23.719504
23.719504
284.54856
23.719504
23.719504
23.719504
23.719504
23.719504
23.719504
23.719504
23.719504
284.54856
23.719504
23.719504
23.719504
23.719504
23.719504
284.54856
284.54856
284.54856
284.54856
23.719504
284.54856
23.719504
23.719504
23.719504
284.54856
23.719504
23.719504
23.719504
284.54856
284.54856
23.719504
23.719504
23.719504
23.719504
23.719504
23.719504
23.719504
23.719504
23.719504
23.719504
23.719504
23.719504
23.719504
23.719504
23.719504
23.719504
23.719504
23.719504
23.719504
284.54856
23.719504
23.719504
23.719504
23.719504
23.719504
23.719504
23.719504
23.719504
23.719504
23.719504
23.719504
23.719504
23.719504
23.719504
23.719504
23.719504
23.719504
23.719504
284.54856
284.54856
23.719504
23.719504
284.54856
284.54856
23.719504
23.719504
284.54856
284.54856
284.54856
23.719504
284.54856
284.54856
284.54856
23.719504
23.719504
23.719504
284.54856
23.719504
284.54856
284.54856
284.54856
284.54856
284.54856
23.719504
284.54856
23.719504
284.54856
284.54856
284.54856
284.54856
284.54856
284.54856
284.54856
284.54856
284.54856
23.719504
284.54856
23.719504
23.719504
23.719504
23.719504
23.719504
23.719504
23.719504
23.719504
284.54856
23.719504
23.719504
23.719504
23.719504
23.719504
23.719504
23.719504
23.719504
23.719504
23.719504
284.54856
23.719504
23.719504
23.719504
23.719504
23.719504
284.54856
23.719504
23.719504
284.54856
284.54856
284.54856
284.54856
23.719504
23.719504
23.719504
23.719504
23.719504
284.54856
113.66103
275.42566
3.76429
196.52839
8.6066167
70.71099
33.839305
96.230489
290.10345
149.51306
5.7960372
0
154.03511
64.705517
0
9.0748573
0
4.0272499
4.4215215
72.947762
)


438
(
247.54772
71.756932
233.45935
125.55486
29.516979
55.00089
109.62769
169.06504
62.438612
52.160623
37.719785
49.602179
34.249812
68.416817
225.35428
247.54772
47.714086
247.54772
247.54772
247.54772
176.28754
94.998827
41.291987
219.04269
41.694998
28.370122
245.88172
116.99806
51.053396
27.993755
247.54772
74.013001
247.54772
24.364861
47.286936
35.323277
28.391618
65.549537
49.519893
195.64749
101.91771
247.54772
247.54772
123.3707
188.84725
176.78966
56.367185
219.80633
247.54772
38.501412
38.501412
38.501412
38.501412
38.501412
38.501412
38.501412
38.501412
38.501412
38.501412
38.501412
38.501412
38.501412
38.501412
38.501412
38.501412
38.501412
38.501412
38.501412
38.501412
38.501412
38.501412
38.501412
38.501412
38.501412
83.269254
247.54772
38.501412
38.501412
247.54772
38.501412
38.501412
38.501412
83.269254
247.54772
247.54772
247.54772
38.501412
38.501412
38.501412
38.501412
38.501412
38.501412
38.501412
247.54772
38.501412
247.54772
83.269254
247.54772
247.54772
247.54772
247.54772
38.501412
38.501412
83.269254
83.269254
83.269254
38.501412
83.269254
83.269254
83.269254
38.501412
83.269254
38.501412
83.269254
38.501412
83.269254
38.501412
83.269254
83.269254
83.269254
38.501412
38.501412
38.501412
83.269254
38.501412
83.269254
247.54772
38.501412
247.54772
83.269254
247.54772
83.269254
247.54772
83.269254
247.54772
38.501412
247.54772
247.54772
247.54772
247.54772
38.501412
38.501412
38.501412
38.501412
38.501412
38.501412
83.269254
83.269254
247.54772
247.54772
247.54772
83.269254
37.851803
83.269254
83.269254
83.269254
83.269254
83.269254
247.54772
247.54772
83.269254
83.269254
83.269254
83.269254
247.54772
247.54772
247.54772
247.54772
247.54772
38.501412
38.501412
38.501412
38.501412
38.501412
38.501412
38.501412
38.501412
38.501412
38.501412
38.501412
83.269254
83.269254
247.54772
38.501412
38.501412
38.501412
38.501412
38.501412
38.501412
38.501412
38.501412
38.501412
38.501412
247.54772
38.501412
83.269254
83.269254
38.501412
83.269254
83.269254
38.660777
83.269254
83.269254
83.269254
83.269254
83.269254
83.269254
83.269254
36.015917
83.269254
83.269254
83.269254
83.269254
83.269254
83.269254
83.269254
83.269254
83.269254
83.269254
83.269254
83.269254
83.269254
247.54772
38.501412
83.269254
83.269254
83.269254
83.269254
83.269254
83.269254
83.269254
83.269254
83.269254
83.269254
83.269254
83.269254
83.269254
83.269254
83.269254
83.269254
83.269254
83.269254
38.501412
83.269254
83.269254
83.269254
83.269254
83.269254
83.269254
83.269254
247.54772
38.501412
247.54772
38.501412
38.501412
43.442141
41.4539
83.269254
83.269254
83.269254
83.269254
40.537848
33.552503
83.269254
83.269254
83.269254
33.49512
83.269254
83.269254
83.269254
83.269254
83.269254
83.269254
247.54772
83.269254
83.269254
83.269254
83.269254
83.269254
83.269254
83.269254
83.269254
247.54772
83.269254
83.269254
83.269254
83.269254
83.269254
247.54772
247.54772
247.54772
247.54772
83.269254
247.54772
83.269254
83.269254
83.269254
247.54772
83.269254
83.269254
83.269254
247.54772
247.54772
83.269254
83.269254
83.269254
83.269254
83.269254
83.269254
83.269254
83.269254
83.269254
83.269254
83.269254
83.269254
83.269254
83.269254
83.269254
83.269254
83.269254
83.269254
83.269254
247.54772
83.269254
83.269254
83.269254
83.269254
83.269254
83.269254
83.269254
83.269254
83.269254
83.269254
83.269254
83.269254
83.269254
83.269254
83.269254
83.269254
83.269254
83.269254
247.54772
247.54772
83.269254
83.269254
247.54772
247.54772
83.269254
83.269254
247.54772
247.54772
247.54772
83.269254
247.54772
247.54772
247.54772
83.269254
83.269254
83.269254
247.54772
83.269254
247.54772
247.54772
247.54772
247.54772
247.54772
83.269254
247.54772
83.269254
247.54772
247.54772
247.54772
247.54772
247.54772
247.54772
247.54772
247.54772
247.54772
83.269254
247.54772
83.269254
83.269254
83.269254
83.269254
83.269254
83.269254
83.269254
83.269254
247.54772
83.269254
83.269254
83.269254
83.269254
83.269254
83.269254
83.269254
83.269254
83.269254
83.269254
247.54772
83.269254
83.269254
83.269254
83.269254
83.269254
247.54772
83.269254
83.269254
247.54772
247.54772
247.54772
247.54772
83.269254
83.269254
83.269254
83.269254
83.269254
247.54772
156.05477
225.44179
11.368192
191.16794
5.7886757
41.580702
32.391699
130.49913
259.79395
101.97055
5.3417271
0
191.13904
1.7964125
0
48.68002
0
1.87308
20.544182
91.826492
)


438
(
218.93877
104.66793
202.72901
201.18212
55.117347
141.49169
162.15761
52.881063
59.783338
51.389368
29.055744
66.652063
32.574791
86.214053
216.42664
213.97999
76.479605
148.59788
205.93986
120.13651
207.98854
207.78646
72.096435
214.91754
84.385658
42.534916
218.93877
107.23916
28.180501
32.017595
152.72604
31.911735
117.98135
28.185772
31.843485
57.53078
44.896471
29.303554
90.459046
218.93877
46.95469
170.99655
167.39276
194.65907
136.70654
163.78483
67.331245
210.2269
99.435485
21.856261
21.856261
21.856261
21.856261
21.856261
21.856261
21.856261
21.856261
21.856261
21.856261
21.856261
21.856261
21.856261
21.856261
21.856261
21.856261
21.856261
21.856261
21.856261
21.856261
21.856261
21.856261
21.856261
21.856261
21.856261
136.63498
218.93877
21.856261
21.856261
218.93877
21.856261
21.856261
21.856261
58.707565
218.93877
218.93877
218.93877
7.3852504
10.317846
6.5851968
4.7502893
21.856261
21.856261
21.856261
218.93877
21.856261
218.93877
136.63498
218.93877
218.93877
218.93877
218.93877
21.856261
21.856261
136.63498
136.63498
43.798345
8.2905139
44.616539
39.891694
49.287615
9.2482079
30.206714
5.8822075
26.816829
5.2686387
136.63498
21.856261
65.793128
136.63498
136.63498
21.856261
21.856261
21.856261
136.63498
21.856261
136.63498
218.93877
21.856261
218.93877
136.63498
218.93877
136.63498
218.93877
136.63498
218.93877
21.856261
218.93877
218.93877
218.93877
218.93877
21.856261
21.856261
8.0241554
7.172344
5.8368264
6.4395652
24.867607
28.036034
218.93877
218.93877
218.93877
28.315139
21.660985
24.408326
25.105138
39.55989
46.022404
35.101885
218.93877
218.93877
136.63498
62.193057
136.63498
136.63498
218.93877
218.93877
218.93877
218.93877
218.93877
8.9796572
9.9733741
21.856261
21.856261
21.856261
21.856261
21.856261
21.856261
21.856261
21.856261
21.856261
47.330619
40.738628
218.93877
7.3985292
10.510856
21.856261
21.856261
21.856261
21.856261
21.856261
21.856261
21.856261
21.856261
218.93877
21.856261
136.63498
136.63498
9.1946208
46.031379
32.566157
20.756726
29.145509
52.992097
136.63498
136.63498
42.280134
29.5888
37.015003
19.596716
26.949855
25.740706
41.890326
60.412207
29.907136
58.914674
43.839114
52.8479
43.062094
136.63498
48.702693
136.63498
136.63498
218.93877
21.856261
136.63498
136.63498
136.63498
136.63498
38.727402
40.452163
50.543035
35.486457
36.38928
55.497129
34.196586
23.658289
136.63498
61.119651
57.614268
136.63498
136.63498
62.633144
21.856261
136.63498
136.63498
136.63498
136.63498
136.63498
136.63498
136.63498
218.93877
21.856261
218.93877
10.188296
8.2573572
23.285548
21.98821
31.544319
26.072667
31.915469
32.751866
21.82219
19.231811
24.267071
27.514711
29.047642
22.261195
36.703071
45.659369
53.540516
52.497505
33.217914
31.029492
218.93877
136.63498
136.63498
56.732281
53.370097
136.63498
60.240153
136.63498
136.63498
218.93877
37.557182
33.39772
37.346934
35.974481
48.519007
218.93877
218.93877
218.93877
218.93877
136.63498
218.93877
136.63498
136.63498
136.63498
218.93877
136.63498
136.63498
136.63498
218.93877
218.93877
136.63498
136.63498
136.63498
136.63498
136.63498
136.63498
136.63498
136.63498
136.63498
136.63498
136.63498
136.63498
136.63498
136.63498
136.63498
136.63498
136.63498
136.63498
136.63498
218.93877
136.63498
136.63498
136.63498
136.63498
136.63498
136.63498
136.63498
136.63498
136.63498
136.63498
136.63498
136.63498
136.63498
61.535207
136.63498
136.63498
136.63498
136.63498
218.93877
218.93877
136.63498
136.63498
218.93877
218.93877
136.63498
136.63498
218.93877
218.93877
218.93877
136.63498
218.93877
218.93877
218.93877
136.63498
136.63498
136.63498
218.93877
136.63498
218.93877
218.93877
218.93877
218.93877
218.93877
136.63498
218.93877
136.63498
218.93877
218.93877
218.93877
218.93877
218.93877
218.93877
218.93877
218.93877
218.93877
136.63498
218.93877
136.63498
136.63498
136.63498
136.63498
136.63498
136.63498
136.63498
136.63498
218.93877
136.63498
136.63498
136.63498
136.63498
136.63498
136.63498
136.63498
136.63498
136.63498
136.63498
218.93877
136.63498
136.63498
136.63498
136.63498
136.63498
218.93877
136.63498
136.63498
218.93877
218.93877
218.93877
218.93877
136.63498
136.63498
136.63498
136.63498
136.63498
218.93877
198.48839
180.5111
14.36285
185.71473
0
23.576865
36.264319
158.93907
236.51368
55.135485
0
0
225.75459
5.3585261
0
107.15585
20.076549
16.18446
11.706958
103.20382
)


438
(
39.400606
36.117908
35.08627
35.523239
73.837882
110.58757
162.49203
37.968391
127.60856
50.320216
31.161218
37.172606
37.483603
68.677394
79.561767
170.02369
38.21349
26.467564
164.86719
31.040596
29.64217
41.227949
59.030521
122.53156
132.80611
61.216441
129.66597
152.65944
26.976017
40.184819
30.322048
26.499077
29.204909
37.351904
33.623442
101.80552
54.627706
29.696441
123.53535
180.4505
53.340164
30.561144
171.20092
175.6047
64.568973
135.8648
50.804325
81.700583
24.859083
0
0
0
0
0
0
0
0
0
0
0
0
0
0
0
0
0
0
0
0
0
0
0
0
0
85.148961
180.4505
0
0
180.4505
0
0
0
106.98607
180.4505
180.4505
180.4505
0
0
0
0
0
0
0
180.4505
0
180.4505
110.52184
180.4505
180.4505
180.4505
180.4505
0
0
178.75054
74.672953
30.80682
0
33.375726
30.746048
33.436489
0
23.922286
0
22.868348
0
47.474156
0
43.126212
47.192816
43.329868
0
0
0
70.633449
0
84.377934
180.4505
0
180.4505
70.062576
180.4505
178.75054
180.4505
178.75054
180.4505
0
180.4505
180.4505
180.4505
180.4505
0
0
0
0
0
0
22.795419
23.864743
180.4505
180.4505
180.4505
32.538444
24.872983
26.060224
30.873382
36.05728
44.26106
33.290454
180.4505
180.4505
65.152474
46.594419
58.884034
50.98186
180.4505
180.4505
180.4505
180.4505
180.4505
0
0
0
0
0
0
0
0
0
0
0
69.170709
40.957993
180.4505
0
0
0
0
0
0
0
0
0
0
180.4505
0
178.75054
56.768079
0
36.16994
28.141807
23.821153
25.876913
39.403115
51.084482
57.175402
65.99376
44.663306
43.550966
23.772387
25.816878
37.403436
36.087794
59.47361
28.082732
72.386686
54.888254
71.754347
48.77003
178.75054
39.266655
66.472507
50.725055
180.4505
0
178.75054
80.138099
62.110756
69.302438
28.260707
33.315661
36.252309
28.200959
30.68598
36.335244
25.996808
23.943761
51.825379
42.924973
39.540188
51.449414
46.916212
39.67854
0
58.076556
84.111177
57.59833
69.683122
178.75054
83.775947
178.75054
180.4505
0
180.4505
0
0
22.731847
23.866141
25.936773
23.805627
35.069341
40.479581
22.669282
25.822773
23.745843
28.231506
38.237705
31.096329
33.255923
39.138631
54.352232
48.279183
30.626198
30.612532
180.4505
71.895191
83.109372
42.725092
42.708232
74.284464
53.325577
55.588091
46.642455
180.4505
49.798735
46.937122
62.833249
37.805012
52.421215
180.4505
180.4505
180.4505
180.4505
178.75054
180.4505
178.75054
178.75054
178.75054
180.4505
178.75054
178.75054
178.75054
180.4505
180.4505
178.75054
178.75054
178.75054
178.75054
83.192072
178.75054
178.75054
73.326109
178.75054
178.75054
178.75054
82.822448
178.75054
178.75054
178.75054
178.75054
178.75054
178.75054
178.75054
180.4505
178.75054
178.75054
178.75054
178.75054
93.650821
178.75054
178.75054
178.75054
178.75054
178.75054
178.75054
178.75054
178.75054
66.702452
90.194144
178.75054
178.75054
178.75054
180.4505
180.4505
178.75054
178.75054
180.4505
180.4505
95.902457
178.75054
180.4505
180.4505
180.4505
178.75054
180.4505
180.4505
180.4505
178.75054
178.75054
178.75054
180.4505
178.75054
180.4505
180.4505
180.4505
180.4505
180.4505
178.75054
180.4505
178.75054
180.4505
180.4505
180.4505
180.4505
180.4505
180.4505
180.4505
180.4505
180.4505
178.75054
180.4505
178.75054
178.75054
178.75054
178.75054
178.75054
178.75054
178.75054
178.75054
180.4505
178.75054
178.75054
78.156479
178.75054
178.75054
178.75054
178.75054
178.75054
178.75054
178.75054
180.4505
178.75054
178.75054
178.75054
178.75054
178.75054
180.4505
178.75054
178.75054
180.4505
180.4505
180.4505
180.4505
178.75054
178.75054
178.75054
83.455685
92.817353
180.4505
227.8011
118.18623
3.7679425
160.88255
0
11.343849
13.706504
172.48733
202.55509
4.9060896
0
2.099485
247.672
0
0
148.2392
26.093233
35.830106
0
100.39634
)

)

skyViewCoeff: 
5
(

438
(
302
302
302
302
302
302
302
302
302
302
302
302
302
302
302
302
302
302
302
302
302
302
302
302
302
302
302
302
302
302
302
302
302
302
302
302
302
302
302
302
302
302
302
302
302
302
302
302
302
151
151
151
151
151
151
151
151
151
151
151
151
151
151
151
151
151
151
151
151
151
151
151
151
151
151
302
151
151
301.99999
151
151
151
151
301.99999
301.99999
301.99999
151
151
151
151
151
151
151
302
151
301.99999
151
302
301.99999
302
302
151
151
151
151
151
151
151
151
151
151
151
151
151
151
151
151
151
151
151
151
151
151
151
151
151
301.99999
151
302
151
301.99999
151
301.99999
151
301.99999
151
302
301.99999
301.99999
301.99999
151
151
151
151
151
151
151
151
302
301.99999
301.99999
151
151
151
151
151
151
151
301.99999
301.99999
151
151
151
151
301.99999
301.99999
301.99999
301.99999
301.99999
151
151
151
151
151
151
151
151
151
151
151
151
151
301.99999
151
151
151
151
151
151
151
151
151
151
301.99999
151
151
151
151
151
151
151
151
151
151
151
151
151
151
151
151
151
151
151
151
151
151
151
151
151
151
151
151
301.99999
151
151
151
151
151
151
151
151
151
151
151
151
151
151
151
151
151
151
151
151
151
151
151
151
151
151
151
301.99999
151
302
151
151
151
151
151
151
151
151
151
151
151
151
151
151
151
151
151
151
151
151
301.99999
151
151
151
151
151
151
151
151
302
151
151
151
151
151
301.99999
301.99999
302
301.99999
151
301.99999
151
151
151
301.99999
151
151
151
301.99999
301.99999
151
151
151
151
151
151
151
151
151
151
151
151
151
151
151
151
151
151
151
301.99999
151
151
151
151
151
151
151
151
151
151
151
151
151
151
151
151
151
151
301.99999
302
151
151
301.99999
302
151
151
302
301.99999
301.99999
151
302
301.99999
301.99999
151
151
151
301.99999
151
301.99999
302
301.99999
301.99999
301.99999
151
301.99999
151
301.99999
301.99999
301.99999
301.99999
301.99999
301.99999
301.99999
301.99999
301.99999
151
301.99999
151
151
151
151
151
151
151
151
301.99999
151
151
151
151
151
151
151
151
151
151
301.99999
151
151
151
151
151
301.99999
151
151
301.99999
301.99999
301.99999
301.99999
151
151
151
151
151
301.99999
187.52893
251.55877
238.07036
199.88982
180.4813
192.54247
192.28705
166.56797
285.91435
190.49298
161.85195
251.78222
196.02802
185.55781
289.84646
162.23593
211.2152
164.67384
161.37302
156.68234
)


438
(
383
383
383
383
383
383
383
383
383
383
383
383
383
383
383
383
383
383
383
383
383
383
383
383
383
383
383
383
383
383
383
383
383
383
383
383
383
383
383
383
383
383
383
383
383
383
383
383
383
191.5
191.5
191.5
191.5
191.5
191.5
191.5
191.5
191.5
191.5
191.5
191.5
191.5
191.5
191.5
191.5
191.5
191.5
191.5
191.5
191.5
191.5
191.5
191.5
191.5
191.5
382.99999
191.5
191.5
382.99999
191.5
191.5
191.5
191.5
382.99999
382.99999
382.99999
191.5
191.5
191.5
191.5
191.5
191.5
191.5
382.99999
191.5
382.99999
191.5
383
382.99999
383
382.99999
191.5
191.5
191.5
191.5
191.5
191.5
191.5
191.5
191.5
191.5
191.5
191.5
191.5
191.5
191.5
191.5
191.5
191.5
191.5
191.5
191.5
191.5
191.5
191.5
191.5
382.99999
191.5
382.99999
191.5
382.99999
191.5
382.99999
191.5
382.99999
191.5
382.99999
382.99999
382.99999
382.99999
191.5
191.5
191.5
191.5
191.5
191.5
191.5
191.5
382.99999
382.99999
382.99999
191.5
191.5
191.5
191.5
191.5
191.5
191.5
382.99999
382.99999
191.5
191.5
191.5
191.5
382.99999
382.99999
382.99999
382.99999
382.99999
191.5
191.5
191.5
191.5
191.5
191.5
191.5
191.5
191.5
191.5
191.5
191.5
191.5
382.99999
191.5
191.5
191.5
191.5
191.5
191.5
191.5
191.5
191.5
191.5
382.99999
191.5
191.5
191.5
191.5
191.5
191.5
191.5
191.5
191.5
191.5
191.5
191.5
191.5
191.5
191.5
191.5
191.5
191.5
191.5
191.5
191.5
191.5
191.5
191.5
191.5
191.5
191.5
191.5
382.99999
191.5
191.5
191.5
191.5
191.5
191.5
191.5
191.5
191.5
191.5
191.5
191.5
191.5
191.5
191.5
191.5
191.5
191.5
191.5
191.5
191.5
191.5
191.5
191.5
191.5
191.5
191.5
382.99999
191.5
382.99999
191.5
191.5
191.5
191.5
191.5
191.5
191.5
191.5
191.5
191.5
191.5
191.5
191.5
191.5
191.5
191.5
191.5
191.5
191.5
191.5
382.99999
191.5
191.5
191.5
191.5
191.5
191.5
191.5
191.5
382.99999
191.5
191.5
191.5
191.5
191.5
382.99999
382.99999
383
382.99999
191.5
382.99999
191.5
191.5
191.5
382.99999
191.5
191.5
191.5
382.99999
382.99999
191.5
191.5
191.5
191.5
191.5
191.5
191.5
191.5
191.5
191.5
191.5
191.5
191.5
191.5
191.5
191.5
191.5
191.5
191.5
382.99999
191.5
191.5
191.5
191.5
191.5
191.5
191.5
191.5
191.5
191.5
191.5
191.5
191.5
191.5
191.5
191.5
191.5
191.5
382.99999
383
191.5
191.5
382.99999
383
191.5
191.5
383
382.99999
382.99999
191.5
383
382.99999
382.99999
191.5
191.5
191.5
382.99999
191.5
382.99999
383
382.99999
382.99999
382.99999
191.5
382.99999
191.5
382.99999
382.99999
382.99999
382.99999
382.99999
382.99999
382.99999
382.99999
382.99999
191.5
382.99999
191.5
191.5
191.5
191.5
191.5
191.5
191.5
191.5
382.99999
191.5
191.5
191.5
191.5
191.5
191.5
191.5
191.5
191.5
191.5
382.99999
191.5
191.5
191.5
191.5
191.5
382.99999
191.5
191.5
382.99999
382.99999
382.99999
382.99999
191.5
191.5
191.5
191.5
191.5
382.99999
237.82642
319.02984
301.92367
253.50265
228.88854
244.18466
243.86073
211.24349
362.59998
241.58546
205.26258
319.31322
248.60507
235.32663
367.58674
205.74954
267.86563
208.84132
204.65518
198.70641
)


438
(
334
334
334
334
334
334
334
334
334
334
334
334
334
334
334
334
334
334
334
334
334
334
334
334
334
334
334
334
334
334
334
334
334
334
334
334
334
334
334
334
334
334
334
334
334
334
334
334
334
167
167
167
167
167
167
167
167
167
167
167
167
167
167
167
167
167
167
167
167
167
167
167
167
167
167
333.99999
167
167
333.99999
167
167
167
167
333.99999
333.99999
333.99999
167
167
167
167
167
167
167
333.99999
167
333.99999
167
334
333.99999
334
333.99999
167
167
167
167
167
167
167
167
167
167
167
167
167
167
167
167
167
167
167
167
167
167
167
167
167
333.99999
167
334
167
333.99999
167
333.99999
167
333.99999
167
333.99999
333.99999
333.99999
333.99999
167
167
167
167
167
167
167
167
333.99999
333.99999
333.99999
167
167
167
167
167
167
167
333.99999
333.99999
167
167
167
167
333.99999
333.99999
333.99999
333.99999
333.99999
167
167
167
167
167
167
167
167
167
167
167
167
167
333.99999
167
167
167
167
167
167
167
167
167
167
333.99999
167
167
167
167
167
167
167
167
167
167
167
167
167
167
167
167
167
167
167
167
167
167
167
167
167
167
167
167
333.99999
167
167
167
167
167
167
167
167
167
167
167
167
167
167
167
167
167
167
167
167
167
167
167
167
167
167
167
333.99999
167
333.99999
167
167
167
167
167
167
167
167
167
167
167
167
167
167
167
167
167
167
167
167
333.99999
167
167
167
167
167
167
167
167
333.99999
167
167
167
167
167
333.99999
333.99999
334
333.99999
167
333.99999
167
167
167
333.99999
167
167
167
333.99999
333.99999
167
167
167
167
167
167
167
167
167
167
167
167
167
167
167
167
167
167
167
333.99999
167
167
167
167
167
167
167
167
167
167
167
167
167
167
167
167
167
167
333.99999
334
167
167
333.99999
334
167
167
334
333.99999
333.99999
167
334
333.99999
333.99999
167
167
167
333.99999
167
333.99999
334
333.99999
333.99999
333.99999
167
333.99999
167
333.99999
333.99999
333.99999
333.99999
333.99999
333.99999
333.99999
333.99999
333.99999
167
333.99999
167
167
167
167
167
167
167
167
333.99999
167
167
167
167
167
167
167
167
167
167
333.99999
167
167
167
167
167
333.99999
167
167
333.99999
333.99999
333.99999
333.99999
167
167
167
167
167
333.99999
207.39954
278.21401
263.29636
221.0702
199.60515
212.94432
212.66183
184.21756
316.20991
210.67766
179.00183
278.46113
216.7992
205.21957
320.55867
179.42649
233.59561
182.12272
178.47215
173.28444
)


438
(
273
273
273
273
273
273
273
273
273
273
273
273
273
273
273
273
273
273
273
273
273
273
273
273
273
273
273
273
273
273
273
273
273
273
273
273
273
273
273
273
273
273
273
273
273
273
273
273
273
136.5
136.5
136.5
136.5
136.5
136.5
136.5
136.5
136.5
136.5
136.5
136.5
136.5
136.5
136.5
136.5
136.5
136.5
136.5
136.5
136.5
136.5
136.5
136.5
136.5
136.5
273
136.5
136.5
273
136.5
136.5
136.5
136.5
273
273
273
136.5
136.5
136.5
136.5
136.5
136.5
136.5
273
136.5
273
136.5
273
273
273
273
136.5
136.5
136.5
136.5
136.5
136.5
136.5
136.5
136.5
136.5
136.5
136.5
136.5
136.5
136.5
136.5
136.5
136.5
136.5
136.5
136.5
136.5
136.5
136.5
136.5
273
136.5
273
136.5
273
136.5
273
136.5
273
136.5
273
273
273
273
136.5
136.5
136.5
136.5
136.5
136.5
136.5
136.5
273
273
273
136.5
136.5
136.5
136.5
136.5
136.5
136.5
272.99999
272.99999
136.5
136.5
136.5
136.5
273
273
273
273
272.99999
136.5
136.5
136.5
136.5
136.5
136.5
136.5
136.5
136.5
136.5
136.5
136.5
136.5
273
136.5
136.5
136.5
136.5
136.5
136.5
136.5
136.5
136.5
136.5
273
136.5
136.5
136.5
136.5
136.5
136.5
136.5
136.5
136.5
136.5
136.5
136.5
136.5
136.5
136.5
136.5
136.5
136.5
136.5
136.5
136.5
136.5
136.5
136.5
136.5
136.5
136.5
136.5
273
136.5
136.5
136.5
136.5
136.5
136.5
136.5
136.5
136.5
136.5
136.5
136.5
136.5
136.5
136.5
136.5
136.5
136.5
136.5
136.5
136.5
136.5
136.5
136.5
136.5
136.5
136.5
272.99999
136.5
273
136.5
136.5
136.5
136.5
136.5
136.5
136.5
136.5
136.5
136.5
136.5
136.5
136.5
136.5
136.5
136.5
136.5
136.5
136.5
136.5
272.99999
136.5
136.5
136.5
136.5
136.5
136.5
136.5
136.5
273
136.5
136.5
136.5
136.5
136.5
273
273
273
273
136.5
272.99999
136.5
136.5
136.5
273
136.5
136.5
136.5
272.99999
272.99999
136.5
136.5
136.5
136.5
136.5
136.5
136.5
136.5
136.5
136.5
136.5
136.5
136.5
136.5
136.5
136.5
136.5
136.5
136.5
272.99999
136.5
136.5
136.5
136.5
136.5
136.5
136.5
136.5
136.5
136.5
136.5
136.5
136.5
136.5
136.5
136.5
136.5
136.5
273
273
136.5
136.5
273
273
136.5
136.5
273
273
273
136.5
273
272.99999
272.99999
136.5
136.5
136.5
273
136.5
273
273
273
273
272.99999
136.5
273
136.5
273
272.99999
272.99999
272.99999
272.99999
272.99999
272.99999
272.99999
272.99999
136.5
272.99999
136.5
136.5
136.5
136.5
136.5
136.5
136.5
136.5
272.99999
136.5
136.5
136.5
136.5
136.5
136.5
136.5
136.5
136.5
136.5
272.99999
136.5
136.5
136.5
136.5
136.5
272.99999
136.5
136.5
272.99999
272.99999
272.99999
272.99999
136.5
136.5
136.5
136.5
136.5
272.99999
169.52118
227.40247
215.2093
180.6951
163.15032
174.05329
173.8224
150.57304
258.459
172.2006
146.30988
227.60446
177.20414
167.73935
262.01352
146.65698
190.93294
148.86079
145.87693
141.63668
)


438
(
230
230
230
230
230
230
230
230
230
230
230
230
230
230
230
230
230
230
230
230
230
230
230
230
230
230
230
230
230
230
230
230
230
230
230
230
230
230
230
230
230
230
230
230
230
230
230
230
230
115
115
115
115
115
115
115
115
115
115
115
115
115
115
115
115
115
115
115
115
115
115
115
115
115
115
230
115
115
230
115
115
115
115
230
230
230
115
115
115
115
115
115
115
230
115
230
115
230
230
230
230
115
115
115
115
115
115
115
115
115
115
115
115
115
115
115
115
115
115
115
115
115
115
115
115
115
230
115
230
115
230
115
230
115
230
115
230
230
230
230
115
115
115
115
115
115
115
115
230
230
230
115
115
115
115
115
115
115
230
230
115
115
115
115
230
230
230
230
230
115
115
115
115
115
115
115
115
115
115
115
115
115
230
115
115
115
115
115
115
115
115
115
115
230
115
115
115
115
115
115
115
115
115
115
115
115
115
115
115
115
115
115
115
115
115
115
115
115
115
115
115
115
230
115
115
115
115
115
115
115
115
115
115
115
115
115
115
115
115
115
115
115
115
115
115
115
115
115
115
115
230
115
230
115
115
115
115
115
115
115
115
115
115
115
115
115
115
115
115
115
115
115
115
230
115
115
115
115
115
115
115
115
230
115
115
115
115
115
230
230
230
230
115
230
115
115
115
230
115
115
115
230
230
115
115
115
115
115
115
115
115
115
115
115
115
115
115
115
115
115
115
115
230
115
115
115
115
115
115
115
115
115
115
115
115
115
115
115
115
115
115
230
230
115
115
230
230
115
115
230
230
230
115
230
230
230
115
115
115
230
115
230
230
230
230
230
115
230
115
230
230
230
230
230
230
230
230
230
115
230
115
115
115
115
115
115
115
115
230
115
115
115
115
115
115
115
115
115
115
230
115
115
115
115
115
230
115
115
230
230
230
230
115
115
115
115
115
230
142.82004
191.5845
181.31186
152.23397
137.45265
146.63831
146.44378
126.8564
217.74934
145.07743
123.26473
191.75467
149.29286
141.31886
220.74399
123.55716
160.85926
125.41385
122.89998
119.32761
)

)

End

Finalising parallel run
