/*---------------------------------------------------------------------------*\
  =========                 |
  \\      /  F ield         | OpenFOAM: The Open Source CFD Toolbox
   \\    /   O peration     | Website:  https://openfoam.org
    \\  /    A nd           | Version:  8
     \\/     M anipulation  |
\*---------------------------------------------------------------------------*/
/*   Windows 32 and 64 bit porting by blueCAPE: http://www.bluecape.com.pt   *\
|  Based on Windows porting (2.0.x v4) by Symscape: http://www.symscape.com   |
\*---------------------------------------------------------------------------*/
Build  : 8-53cd1468e263
Exec   : urbanMicroClimateFoam -parallel
Date   : Nov 20 2024
Time   : 13:37:00
Host   : "FOAM2"
PID    : 35652
I/O    : uncollated
Case   : C:/MetaFoam_Cases/UMCF_CRVS_jmp01
nProcs : 12
Slaves : 
11
(
"FOAM2.46568"
"FOAM2.24932"
"FOAM2.45224"
"FOAM2.24408"
"FOAM2.32904"
"FOAM2.22344"
"FOAM2.21720"
"FOAM2.41732"
"FOAM2.42496"
"FOAM2.27564"
"FOAM2.46720"
)

Pstream initialized with:
    floatTransfer      : 0
    nProcsSimpleSum    : 0
    commsType          : nonBlocking
    polling iterations : 0
SigFpe : Enabling floating point exception trapping (FOAM_SIGFPE).
fileModificationChecking : Monitoring run-time modified files using timeStampMaster (fileModificationSkew 10)
allowSystemOperations : Allowing user-supplied system call operations

// * * * * * * * * * * * * * * * * * * * * * * * * * * * * * * * * * * * * * //
Create time

Create fluid mesh for region air for time = 0

Create solid mesh for region tower for time = 0

Create vegetation mesh for region vegetation for time = 0

*** Reading fluid mesh thermophysical properties for region air

    Adding to thermoFluid

Selecting thermodynamics package 
{
    type            heRhoThermo;
    mixture         pureMixture;
    transport       const;
    thermo          hConst;
    equationOfState Boussinesq;
    specie          specie;
    energy          sensibleEnthalpy;
}

    Adding to rhoFluid

Radiation model not active: radiationProperties not found
Selecting radiationModel none
solarLoad model not active: solarLoadProperties not found
Selecting solarLoadModel none
Selecting vegetationModel simplifiedVegetation
 Defined simplifiedVegetation model
Grass model not active: grassProperties not found
Selecting grassModel none
    Adding to UFluid

    Adding to wFluid

    Adding to gcrFluid

    Adding to phiFluid

    Adding to gFluid

    Adding to turbulence

Selecting turbulence model type RAS
Selecting RAS turbulence model realizableKE
RAS
{
    RASModel        realizableKE;
    turbulence      on;
    printCoeffs     on;
    A0              4;
    C2              1.9;
    sigmak          1;
    sigmaEps        1.2;
}

    Adding to thermophysical transport

Selecting thermophysical transport type RAS
Selecting default RAS thermophysical transport model eddyDiffusivity
    Adding to ghFluid

    Adding to ghfFluid

pressureControl
    pMax 120000
    pMin 80000

    Adding MRF

No MRF models present

    Adding fvOptions

Creating finite volume options from "system/fvOptions"

Selecting finite volume options model type limitTemperature
    Source: limitT
    - selecting all cells
    - selected 166365 cell(s) with volume 137489.24
    Adding solidTransportProperties

    Adding to rho_mSolid

    Adding to cap_mSolid

    Adding to lambda_mSolid

    Adding to TsSolid

    Adding to wsSolid

    Adding to pcSolid

    Adding to KrelSolid

    Adding to K_vSolid

    Adding to K_ptSolid

    Adding to CrelSolid

    Adding to gSolid

*** Reading fluid mesh thermophysical properties for region vegetation

    Adding to TVeg

Selecting radiationModel viewFactorSky
Selecting absorptionEmissionModel none
Selecting scatterModel none
Selecting solarLoadModel directAndDiffuse
Selecting solarLoadAbsorptionEmissionModel none
Selecting solarLoadScatterModel none
Selected patches:
15
(
0
1
2
3
4
5
6
7
-1
-1
-1
-1
-1
-1
-1
)

Number of coarse faces:438
wallPatchOrNot_: 
15
(
0
0
0
0
1
0
1
1
0
0
0
0
0
0
0
)

nLocalWallCoarseFaces_: 438
Selected patches:8(0 1 2 3 4 5 6 7)
Number of coarse faces:438
wallPatchOrNot_: 7(0 0 0 0 1 0 1)
nLocalWallCoarseFaces_: 438
Total number of clusters : 6234
Total number of fine faces : 31084
Insert elements in the matrix...
Smoothing the matrix...

Time = 3600

Solving for fluid region air

SIMPLE: Convergence criteria found
        p_rgh: tolerance 0.001
        U: tolerance 0.0001
        h: tolerance 0.0001
        w: tolerance 0.0001
        "(k|epsilon|omega)": tolerance 0.0001
        Tl: tolerance 0.0001

Internal iteration number: 1
DILUPBiCGStab:  Solving for Ux, Initial residual = 1, Final residual = 0.0067237834, No Iterations 2
DILUPBiCGStab:  Solving for Uy, Initial residual = 1, Final residual = 0.0025230175, No Iterations 2
DILUPBiCGStab:  Solving for Uz, Initial residual = 1, Final residual = 0.0063115444, No Iterations 2
DILUPBiCGStab:  Solving for h, Initial residual = 1, Final residual = 0.0077480385, No Iterations 3
Min/max T:292.5073 303.12626
GAMG:  Solving for p_rgh, Initial residual = 0.90993374, Final residual = 0.0039874161, No Iterations 3
time step continuity errors : sum local = 29.284867, global = -12.694133, cumulative = -12.694133
DILUPBiCGStab:  Solving for w, Initial residual = 1, Final residual = 0.0080808671, No Iterations 5
bounding magU, min: 0 max: 24.521806 average: 4.8898732
    max leaf temp tl=max(new_Tl) [0 0 0 1 0 0 0] 293.15k, iteration i=0
    max leaf temp tl=293.84217 K, iteration i=1
    max leaf temp tl=293.83838 K, iteration i=2
    max leaf temp tl=293.83572 K, iteration i=3
    max leaf temp tl=293.83386 K, iteration i=4
    max leaf temp tl=293.83257 K, iteration i=5
    max leaf temp tl=293.83166 K, iteration i=6
    max leaf temp tl=293.83103 K, iteration i=7
    max leaf temp tl=293.8306 K, iteration i=8
    max leaf temp tl=293.83029 K, iteration i=9
    max leaf temp tl=293.83008 K, iteration i=10
Vegetation model:  Solving for Tl, Final residual = 0.026356026, Final relative residual = 8.9698189e-05, No Iterations 10
temperature parameters: max Tl = 293.81189, min T = 292.5073, max T = 303.12626
resistances: max rs = 11210.727, max ra = 25.488766
DILUPBiCGStab:  Solving for epsilon, Initial residual = 0.028332762, Final residual = 0.0002063467, No Iterations 1
DILUPBiCGStab:  Solving for k, Initial residual = 1, Final residual = 0.005752999, No Iterations 1

Internal iteration number: 2
DILUPBiCGStab:  Solving for Ux, Initial residual = 0.29349632, Final residual = 0.0021042374, No Iterations 2
DILUPBiCGStab:  Solving for Uy, Initial residual = 0.38515318, Final residual = 0.0029872401, No Iterations 2
DILUPBiCGStab:  Solving for Uz, Initial residual = 0.26724922, Final residual = 0.0006462503, No Iterations 2
DILUPBiCGStab:  Solving for h, Initial residual = 0.2950886, Final residual = 0.0025829042, No Iterations 3
Min/max T:292.75194 301.21188
GAMG:  Solving for p_rgh, Initial residual = 0.65624944, Final residual = 0.0026695991, No Iterations 3
time step continuity errors : sum local = 0.0030525451, global = -0.00092768843, cumulative = -12.69506
DILUPBiCGStab:  Solving for w, Initial residual = 0.25005862, Final residual = 0.0019845708, No Iterations 5
bounding magU, min: 0 max: 18.818254 average: 4.6856567
    max leaf temp tl=max(new_Tl) [0 0 0 1 0 0 0] 293.81189k, iteration i=0
    max leaf temp tl=293.98749 K, iteration i=1
    max leaf temp tl=293.98646 K, iteration i=2
    max leaf temp tl=293.98574 K, iteration i=3
    max leaf temp tl=293.98523 K, iteration i=4
    max leaf temp tl=293.98488 K, iteration i=5
    max leaf temp tl=293.98464 K, iteration i=6
    max leaf temp tl=293.98447 K, iteration i=7
    max leaf temp tl=293.98435 K, iteration i=8
Vegetation model:  Solving for Tl, Final residual = 0.02630962, Final relative residual = 8.9493267e-05, No Iterations 8
temperature parameters: max Tl = 293.97174, min T = 292.75194, max T = 301.21188
resistances: max rs = 11158.15, max ra = 30.124574
DILUPBiCGStab:  Solving for epsilon, Initial residual = 0.011501037, Final residual = 6.9638701e-05, No Iterations 1
DILUPBiCGStab:  Solving for k, Initial residual = 0.26217309, Final residual = 0.0016229422, No Iterations 1

Internal iteration number: 3
DILUPBiCGStab:  Solving for Ux, Initial residual = 0.21742968, Final residual = 0.00049197998, No Iterations 2
DILUPBiCGStab:  Solving for Uy, Initial residual = 0.24703553, Final residual = 0.001846033, No Iterations 2
DILUPBiCGStab:  Solving for Uz, Initial residual = 0.6589115, Final residual = 0.0017959722, No Iterations 2
DILUPBiCGStab:  Solving for h, Initial residual = 0.15049391, Final residual = 0.00083633817, No Iterations 2
Min/max T:292.87966 300.72819
GAMG:  Solving for p_rgh, Initial residual = 0.49474654, Final residual = 0.0027813075, No Iterations 3
time step continuity errors : sum local = 0.0033002815, global = 0.0010131417, cumulative = -12.694047
DILUPBiCGStab:  Solving for w, Initial residual = 0.16415471, Final residual = 0.0013707391, No Iterations 4
bounding magU, min: 0 max: 12.952122 average: 4.4685996
    max leaf temp tl=max(new_Tl) [0 0 0 1 0 0 0] 293.97174k, iteration i=0
    max leaf temp tl=294.32997 K, iteration i=1
    max leaf temp tl=294.32824 K, iteration i=2
    max leaf temp tl=294.32703 K, iteration i=3
    max leaf temp tl=294.32618 K, iteration i=4
    max leaf temp tl=294.32559 K, iteration i=5
    max leaf temp tl=294.32518 K, iteration i=6
    max leaf temp tl=294.3249 K, iteration i=7
    max leaf temp tl=294.3247 K, iteration i=8
    max leaf temp tl=294.32456 K, iteration i=9
Vegetation model:  Solving for Tl, Final residual = 0.021198119, Final relative residual = 7.2022937e-05, No Iterations 9
temperature parameters: max Tl = 294.31089, min T = 292.87966, max T = 300.72819
resistances: max rs = 11153.417, max ra = 30.349231
DILUPBiCGStab:  Solving for epsilon, Initial residual = 0.0073173918, Final residual = 4.481118e-05, No Iterations 1
DILUPBiCGStab:  Solving for k, Initial residual = 0.19048364, Final residual = 0.0013172335, No Iterations 1

Internal iteration number: 4
DILUPBiCGStab:  Solving for Ux, Initial residual = 0.194032, Final residual = 0.0017272893, No Iterations 2
DILUPBiCGStab:  Solving for Uy, Initial residual = 0.27820139, Final residual = 0.0026371106, No Iterations 2
DILUPBiCGStab:  Solving for Uz, Initial residual = 0.33325072, Final residual = 0.00092323375, No Iterations 2
DILUPBiCGStab:  Solving for h, Initial residual = 0.12256269, Final residual = 0.00096115534, No Iterations 2
Min/max T:293.15931 300.46027
GAMG:  Solving for p_rgh, Initial residual = 0.76961826, Final residual = 0.0031260333, No Iterations 3
time step continuity errors : sum local = 0.0015510994, global = 0.00064854675, cumulative = -12.693399
DILUPBiCGStab:  Solving for w, Initial residual = 0.10570794, Final residual = 0.00093161086, No Iterations 4
bounding magU, min: 0 max: 9.4920185 average: 4.3295598
    max leaf temp tl=max(new_Tl) [0 0 0 1 0 0 0] 294.31089k, iteration i=0
    max leaf temp tl=295.03203 K, iteration i=1
    max leaf temp tl=295.02809 K, iteration i=2
    max leaf temp tl=295.02531 K, iteration i=3
    max leaf temp tl=295.0235 K, iteration i=4
    max leaf temp tl=295.02225 K, iteration i=5
    max leaf temp tl=295.02137 K, iteration i=6
    max leaf temp tl=295.02076 K, iteration i=7
    max leaf temp tl=295.02033 K, iteration i=8
    max leaf temp tl=295.02004 K, iteration i=9
    max leaf temp tl=295.01983 K, iteration i=10
    max leaf temp tl=295.01969 K, iteration i=11
Vegetation model:  Solving for Tl, Final residual = 0.024318902, Final relative residual = 8.2431454e-05, No Iterations 11
temperature parameters: max Tl = 295.00598, min T = 293.15931, max T = 300.46027
resistances: max rs = 11217.581, max ra = 28.123497
DILUPBiCGStab:  Solving for epsilon, Initial residual = 0.0084172979, Final residual = 4.0976374e-05, No Iterations 1
DILUPBiCGStab:  Solving for k, Initial residual = 0.11741417, Final residual = 0.00083375892, No Iterations 1

Internal iteration number: 5
DILUPBiCGStab:  Solving for Ux, Initial residual = 0.21057015, Final residual = 0.00054152741, No Iterations 2
DILUPBiCGStab:  Solving for Uy, Initial residual = 0.27454995, Final residual = 0.0022965837, No Iterations 2
DILUPBiCGStab:  Solving for Uz, Initial residual = 0.51983584, Final residual = 0.0012957256, No Iterations 2
DILUPBiCGStab:  Solving for h, Initial residual = 0.10267813, Final residual = 0.00088927712, No Iterations 3
Min/max T:293.19885 300.67879
GAMG:  Solving for p_rgh, Initial residual = 0.41938988, Final residual = 0.0021524087, No Iterations 3
time step continuity errors : sum local = 0.0014246327, global = -0.00055984612, cumulative = -12.693958
DILUPBiCGStab:  Solving for w, Initial residual = 0.068902656, Final residual = 0.00042838296, No Iterations 4
bounding magU, min: 0 max: 8.7298378 average: 4.2066962
    max leaf temp tl=max(new_Tl) [0 0 0 1 0 0 0] 295.00598k, iteration i=0
    max leaf temp tl=295.97348 K, iteration i=1
    max leaf temp tl=295.96957 K, iteration i=2
    max leaf temp tl=295.96682 K, iteration i=3
    max leaf temp tl=295.96488 K, iteration i=4
    max leaf temp tl=295.96352 K, iteration i=5
    max leaf temp tl=295.96257 K, iteration i=6
    max leaf temp tl=295.96191 K, iteration i=7
    max leaf temp tl=295.96144 K, iteration i=8
    max leaf temp tl=295.96112 K, iteration i=9
    max leaf temp tl=295.9609 K, iteration i=10
    max leaf temp tl=295.96074 K, iteration i=11
Vegetation model:  Solving for Tl, Final residual = 0.029383593, Final relative residual = 9.9282063e-05, No Iterations 11
temperature parameters: max Tl = 295.94192, min T = 293.19885, max T = 300.67879
resistances: max rs = 11194.142, max ra = 27.806323
DILUPBiCGStab:  Solving for epsilon, Initial residual = 0.0076734831, Final residual = 3.6084835e-05, No Iterations 1
DILUPBiCGStab:  Solving for k, Initial residual = 0.068784773, Final residual = 0.00040237628, No Iterations 1

Internal iteration number: 6
DILUPBiCGStab:  Solving for Ux, Initial residual = 0.12097444, Final residual = 0.0004254916, No Iterations 2
DILUPBiCGStab:  Solving for Uy, Initial residual = 0.26674371, Final residual = 0.00060944137, No Iterations 2
DILUPBiCGStab:  Solving for Uz, Initial residual = 0.25274201, Final residual = 0.00068478433, No Iterations 2
DILUPBiCGStab:  Solving for h, Initial residual = 0.092254239, Final residual = 0.00052756379, No Iterations 3
Min/max T:293.07899 300.37185
GAMG:  Solving for p_rgh, Initial residual = 0.72066313, Final residual = 0.0035762395, No Iterations 3
time step continuity errors : sum local = 0.00086065555, global = -0.00031429029, cumulative = -12.694273
DILUPBiCGStab:  Solving for w, Initial residual = 0.054003255, Final residual = 0.00041531817, No Iterations 4
bounding magU, min: 0 max: 7.9319957 average: 4.0807204
    max leaf temp tl=max(new_Tl) [0 0 0 1 0 0 0] 295.94192k, iteration i=0
    max leaf temp tl=296.77049 K, iteration i=1
    max leaf temp tl=296.76608 K, iteration i=2
    max leaf temp tl=296.76298 K, iteration i=3
    max leaf temp tl=296.76081 K, iteration i=4
    max leaf temp tl=296.75929 K, iteration i=5
    max leaf temp tl=296.75823 K, iteration i=6
    max leaf temp tl=296.75749 K, iteration i=7
    max leaf temp tl=296.75698 K, iteration i=8
    max leaf temp tl=296.75662 K, iteration i=9
    max leaf temp tl=296.75637 K, iteration i=10
    max leaf temp tl=296.7562 K, iteration i=11
Vegetation model:  Solving for Tl, Final residual = 0.026164185, Final relative residual = 8.8167274e-05, No Iterations 11
temperature parameters: max Tl = 296.74058, min T = 293.07899, max T = 300.37185
resistances: max rs = 11162.719, max ra = 30.708399
DILUPBiCGStab:  Solving for epsilon, Initial residual = 0.0065285223, Final residual = 3.1075126e-05, No Iterations 1
DILUPBiCGStab:  Solving for k, Initial residual = 0.055041042, Final residual = 0.0003611315, No Iterations 1

Internal iteration number: 7
DILUPBiCGStab:  Solving for Ux, Initial residual = 0.081437616, Final residual = 0.00040585092, No Iterations 2
DILUPBiCGStab:  Solving for Uy, Initial residual = 0.18318241, Final residual = 0.00091439814, No Iterations 2
DILUPBiCGStab:  Solving for Uz, Initial residual = 0.40682757, Final residual = 0.0010671411, No Iterations 2
DILUPBiCGStab:  Solving for h, Initial residual = 0.080056724, Final residual = 0.00056989876, No Iterations 3
Min/max T:293.05994 300.37805
GAMG:  Solving for p_rgh, Initial residual = 0.36936788, Final residual = 0.0021255462, No Iterations 3
time step continuity errors : sum local = 0.00067141189, global = 0.0002782944, cumulative = -12.693994
DILUPBiCGStab:  Solving for w, Initial residual = 0.042684685, Final residual = 0.00029304999, No Iterations 4
bounding magU, min: 0 max: 8.2459388 average: 3.986363
    max leaf temp tl=max(new_Tl) [0 0 0 1 0 0 0] 296.74058k, iteration i=0
    max leaf temp tl=297.37084 K, iteration i=1
    max leaf temp tl=297.36742 K, iteration i=2
    max leaf temp tl=297.36502 K, iteration i=3
    max leaf temp tl=297.36334 K, iteration i=4
    max leaf temp tl=297.36217 K, iteration i=5
    max leaf temp tl=297.36136 K, iteration i=6
    max leaf temp tl=297.36079 K, iteration i=7
    max leaf temp tl=297.3604 K, iteration i=8
    max leaf temp tl=297.36012 K, iteration i=9
    max leaf temp tl=297.35993 K, iteration i=10
    max leaf temp tl=297.3598 K, iteration i=11
Vegetation model:  Solving for Tl, Final residual = 0.026999661, Final relative residual = 9.0797953e-05, No Iterations 11
temperature parameters: max Tl = 297.34829, min T = 293.05994, max T = 300.37805
resistances: max rs = 11204.223, max ra = 34.962558
DILUPBiCGStab:  Solving for epsilon, Initial residual = 0.0056732263, Final residual = 2.7347152e-05, No Iterations 1
DILUPBiCGStab:  Solving for k, Initial residual = 0.050603265, Final residual = 0.00031879099, No Iterations 1

Internal iteration number: 8
DILUPBiCGStab:  Solving for Ux, Initial residual = 0.057940568, Final residual = 5.9224063e-05, No Iterations 3
DILUPBiCGStab:  Solving for Uy, Initial residual = 0.15964281, Final residual = 0.00039493172, No Iterations 2
DILUPBiCGStab:  Solving for Uz, Initial residual = 0.22718037, Final residual = 0.00069350522, No Iterations 2
DILUPBiCGStab:  Solving for h, Initial residual = 0.070925121, Final residual = 0.00052942441, No Iterations 3
Min/max T:293.17306 300.38925
GAMG:  Solving for p_rgh, Initial residual = 0.67755342, Final residual = 0.0038267214, No Iterations 3
time step continuity errors : sum local = 0.00048230115, global = 0.00017116282, cumulative = -12.693823
DILUPBiCGStab:  Solving for w, Initial residual = 0.036225506, Final residual = 0.00033301038, No Iterations 3
bounding magU, min: 0 max: 8.0131065 average: 3.922067
    max leaf temp tl=max(new_Tl) [0 0 0 1 0 0 0] 297.34829k, iteration i=0
    max leaf temp tl=297.94745 K, iteration i=1
    max leaf temp tl=297.94414 K, iteration i=2
    max leaf temp tl=297.94181 K, iteration i=3
    max leaf temp tl=297.94019 K, iteration i=4
    max leaf temp tl=297.93906 K, iteration i=5
    max leaf temp tl=297.93827 K, iteration i=6
    max leaf temp tl=297.93772 K, iteration i=7
    max leaf temp tl=297.93734 K, iteration i=8
    max leaf temp tl=297.93708 K, iteration i=9
    max leaf temp tl=297.93689 K, iteration i=10
    max leaf temp tl=297.93677 K, iteration i=11
Vegetation model:  Solving for Tl, Final residual = 0.02729801, Final relative residual = 9.1623502e-05, No Iterations 11
temperature parameters: max Tl = 297.92551, min T = 293.17306, max T = 300.38925
resistances: max rs = 11305.559, max ra = 36.15986
DILUPBiCGStab:  Solving for epsilon, Initial residual = 0.0050645412, Final residual = 2.5088249e-05, No Iterations 1
DILUPBiCGStab:  Solving for k, Initial residual = 0.042502846, Final residual = 0.00030233327, No Iterations 1

Internal iteration number: 9
DILUPBiCGStab:  Solving for Ux, Initial residual = 0.063271817, Final residual = 0.0001525208, No Iterations 2
DILUPBiCGStab:  Solving for Uy, Initial residual = 0.1251491, Final residual = 0.0010530416, No Iterations 2
DILUPBiCGStab:  Solving for Uz, Initial residual = 0.21691991, Final residual = 0.0012251403, No Iterations 2
DILUPBiCGStab:  Solving for h, Initial residual = 0.068107438, Final residual = 0.00049988448, No Iterations 3
Min/max T:293.17827 300.37788
GAMG:  Solving for p_rgh, Initial residual = 0.29210986, Final residual = 0.0018208026, No Iterations 3
time step continuity errors : sum local = 0.00038036418, global = -0.00016124368, cumulative = -12.693984
DILUPBiCGStab:  Solving for w, Initial residual = 0.032954786, Final residual = 0.00024949963, No Iterations 4
bounding magU, min: 0 max: 7.6086044 average: 3.8527165
    max leaf temp tl=max(new_Tl) [0 0 0 1 0 0 0] 297.92551k, iteration i=0
    max leaf temp tl=298.5306 K, iteration i=1
    max leaf temp tl=298.52718 K, iteration i=2
    max leaf temp tl=298.52479 K, iteration i=3
    max leaf temp tl=298.52311 K, iteration i=4
    max leaf temp tl=298.52195 K, iteration i=5
    max leaf temp tl=298.52114 K, iteration i=6
    max leaf temp tl=298.52057 K, iteration i=7
    max leaf temp tl=298.52018 K, iteration i=8
    max leaf temp tl=298.5199 K, iteration i=9
    max leaf temp tl=298.51972 K, iteration i=10
    max leaf temp tl=298.51958 K, iteration i=11
Vegetation model:  Solving for Tl, Final residual = 0.027462373, Final relative residual = 9.1995215e-05, No Iterations 11
temperature parameters: max Tl = 298.50857, min T = 293.17827, max T = 300.37788
resistances: max rs = 11433.694, max ra = 37.638053
DILUPBiCGStab:  Solving for epsilon, Initial residual = 0.0047115024, Final residual = 2.4177921e-05, No Iterations 1
DILUPBiCGStab:  Solving for k, Initial residual = 0.040591536, Final residual = 0.0002720255, No Iterations 1

Internal iteration number: 10
DILUPBiCGStab:  Solving for Ux, Initial residual = 0.045842309, Final residual = 0.00016773346, No Iterations 2
DILUPBiCGStab:  Solving for Uy, Initial residual = 0.12892589, Final residual = 0.001149932, No Iterations 2
DILUPBiCGStab:  Solving for Uz, Initial residual = 0.14442802, Final residual = 0.00050930723, No Iterations 2
DILUPBiCGStab:  Solving for h, Initial residual = 0.062143575, Final residual = 0.00049171514, No Iterations 3
Min/max T:293.1546 300.36238
GAMG:  Solving for p_rgh, Initial residual = 0.40860915, Final residual = 0.0025523335, No Iterations 3
time step continuity errors : sum local = 0.0002965722, global = -9.8538728e-05, cumulative = -12.694083
DILUPBiCGStab:  Solving for w, Initial residual = 0.029869017, Final residual = 0.00028120759, No Iterations 4
bounding magU, min: 0 max: 7.4107833 average: 3.7795543
    max leaf temp tl=max(new_Tl) [0 0 0 1 0 0 0] 298.50857k, iteration i=0
    max leaf temp tl=299.0562 K, iteration i=1
    max leaf temp tl=299.05222 K, iteration i=2
    max leaf temp tl=299.04944 K, iteration i=3
    max leaf temp tl=299.0475 K, iteration i=4
    max leaf temp tl=299.04615 K, iteration i=5
    max leaf temp tl=299.04521 K, iteration i=6
    max leaf temp tl=299.04456 K, iteration i=7
    max leaf temp tl=299.04411 K, iteration i=8
    max leaf temp tl=299.04379 K, iteration i=9
    max leaf temp tl=299.04357 K, iteration i=10
    max leaf temp tl=299.04342 K, iteration i=11
Vegetation model:  Solving for Tl, Final residual = 0.025184673, Final relative residual = 8.4217443e-05, No Iterations 11
temperature parameters: max Tl = 299.03298, min T = 293.1546, max T = 300.36238
resistances: max rs = 11577.497, max ra = 41.387317
DILUPBiCGStab:  Solving for epsilon, Initial residual = 0.004678814, Final residual = 2.4274353e-05, No Iterations 1
DILUPBiCGStab:  Solving for k, Initial residual = 0.039056006, Final residual = 0.00024822627, No Iterations 1

Internal iteration number: 11
DILUPBiCGStab:  Solving for Ux, Initial residual = 0.032877977, Final residual = 7.8061127e-05, No Iterations 2
DILUPBiCGStab:  Solving for Uy, Initial residual = 0.10157734, Final residual = 0.00015659135, No Iterations 2
DILUPBiCGStab:  Solving for Uz, Initial residual = 0.15887487, Final residual = 8.4122792e-05, No Iterations 3
DILUPBiCGStab:  Solving for h, Initial residual = 0.055841001, Final residual = 0.00019376725, No Iterations 4
Min/max T:293.14383 300.36587
GAMG:  Solving for p_rgh, Initial residual = 0.33843353, Final residual = 0.0022436799, No Iterations 3
time step continuity errors : sum local = 0.00022702424, global = 9.5082755e-05, cumulative = -12.693988
DILUPBiCGStab:  Solving for w, Initial residual = 0.027404063, Final residual = 0.0001704442, No Iterations 4
bounding magU, min: 0 max: 7.5577049 average: 3.723687
    max leaf temp tl=max(new_Tl) [0 0 0 1 0 0 0] 299.03298k, iteration i=0
    max leaf temp tl=299.59277 K, iteration i=1
    max leaf temp tl=299.58875 K, iteration i=2
    max leaf temp tl=299.58594 K, iteration i=3
    max leaf temp tl=299.58398 K, iteration i=4
    max leaf temp tl=299.58262 K, iteration i=5
    max leaf temp tl=299.58168 K, iteration i=6
    max leaf temp tl=299.58102 K, iteration i=7
    max leaf temp tl=299.58057 K, iteration i=8
    max leaf temp tl=299.58025 K, iteration i=9
    max leaf temp tl=299.58004 K, iteration i=10
    max leaf temp tl=299.57988 K, iteration i=11
Vegetation model:  Solving for Tl, Final residual = 0.023491069, Final relative residual = 7.8413371e-05, No Iterations 11
temperature parameters: max Tl = 299.56992, min T = 293.14383, max T = 300.36587
resistances: max rs = 11736.823, max ra = 45.238763
DILUPBiCGStab:  Solving for epsilon, Initial residual = 0.0047284373, Final residual = 2.4895335e-05, No Iterations 1
DILUPBiCGStab:  Solving for k, Initial residual = 0.036749058, Final residual = 0.00023676058, No Iterations 1

Internal iteration number: 12
DILUPBiCGStab:  Solving for Ux, Initial residual = 0.026633074, Final residual = 0.00026607587, No Iterations 2
DILUPBiCGStab:  Solving for Uy, Initial residual = 0.086082702, Final residual = 0.00071617131, No Iterations 2
DILUPBiCGStab:  Solving for Uz, Initial residual = 0.12223571, Final residual = 0.00097421286, No Iterations 2
DILUPBiCGStab:  Solving for h, Initial residual = 0.050699553, Final residual = 0.00020778296, No Iterations 4
Min/max T:293.17881 300.37765
GAMG:  Solving for p_rgh, Initial residual = 0.42550073, Final residual = 0.0027739178, No Iterations 3
time step continuity errors : sum local = 0.00016786093, global = 5.4399895e-05, cumulative = -12.693934
DILUPBiCGStab:  Solving for w, Initial residual = 0.025969411, Final residual = 0.00022088493, No Iterations 3
bounding magU, min: 0 max: 7.4847507 average: 3.6824753
    max leaf temp tl=max(new_Tl) [0 0 0 1 0 0 0] 299.56992k, iteration i=0
    max leaf temp tl=300.05155 K, iteration i=1
    max leaf temp tl=300.04795 K, iteration i=2
    max leaf temp tl=300.04544 K, iteration i=3
    max leaf temp tl=300.04369 K, iteration i=4
    max leaf temp tl=300.04248 K, iteration i=5
    max leaf temp tl=300.04163 K, iteration i=6
    max leaf temp tl=300.04105 K, iteration i=7
    max leaf temp tl=300.04065 K, iteration i=8
    max leaf temp tl=300.04037 K, iteration i=9
    max leaf temp tl=300.04017 K, iteration i=10
    max leaf temp tl=300.04004 K, iteration i=11
Vegetation model:  Solving for Tl, Final residual = 0.023122752, Final relative residual = 7.7065556e-05, No Iterations 11
temperature parameters: max Tl = 300.0315, min T = 293.17881, max T = 300.37765
resistances: max rs = 11889.394, max ra = 47.017452
DILUPBiCGStab:  Solving for epsilon, Initial residual = 0.0047718373, Final residual = 2.5858897e-05, No Iterations 1
DILUPBiCGStab:  Solving for k, Initial residual = 0.035895436, Final residual = 0.00022710943, No Iterations 1

Internal iteration number: 13
DILUPBiCGStab:  Solving for Ux, Initial residual = 0.024978764, Final residual = 7.4704847e-05, No Iterations 2
DILUPBiCGStab:  Solving for Uy, Initial residual = 0.067030254, Final residual = 0.00017248868, No Iterations 2
DILUPBiCGStab:  Solving for Uz, Initial residual = 0.092511317, Final residual = 0.00033315887, No Iterations 3
DILUPBiCGStab:  Solving for h, Initial residual = 0.047073759, Final residual = 0.00021117264, No Iterations 4
Min/max T:293.17806 300.38247
GAMG:  Solving for p_rgh, Initial residual = 0.20230486, Final residual = 0.0015160137, No Iterations 3
time step continuity errors : sum local = 0.00014375761, global = -6.4731154e-05, cumulative = -12.693998
DILUPBiCGStab:  Solving for w, Initial residual = 0.024832756, Final residual = 0.00024495424, No Iterations 3
bounding magU, min: 0 max: 7.346179 average: 3.6385681
    max leaf temp tl=max(new_Tl) [0 0 0 1 0 0 0] 300.0315k, iteration i=0
    max leaf temp tl=300.39044 K, iteration i=1
    max leaf temp tl=300.38767 K, iteration i=2
    max leaf temp tl=300.38574 K, iteration i=3
    max leaf temp tl=300.3844 K, iteration i=4
    max leaf temp tl=300.38347 K, iteration i=5
    max leaf temp tl=300.38283 K, iteration i=6
    max leaf temp tl=300.38238 K, iteration i=7
    max leaf temp tl=300.38207 K, iteration i=8
    max leaf temp tl=300.38186 K, iteration i=9
    max leaf temp tl=300.38171 K, iteration i=10
    max leaf temp tl=300.38161 K, iteration i=11
Vegetation model:  Solving for Tl, Final residual = 0.022692524, Final relative residual = 7.5545649e-05, No Iterations 11
temperature parameters: max Tl = 300.37526, min T = 293.17806, max T = 300.38247
resistances: max rs = 12018.47, max ra = 48.765843
DILUPBiCGStab:  Solving for epsilon, Initial residual = 0.0047895369, Final residual = 2.6773076e-05, No Iterations 1
DILUPBiCGStab:  Solving for k, Initial residual = 0.036050708, Final residual = 0.00022107584, No Iterations 1

Internal iteration number: 14
DILUPBiCGStab:  Solving for Ux, Initial residual = 0.021979231, Final residual = 0.00016259123, No Iterations 2
DILUPBiCGStab:  Solving for Uy, Initial residual = 0.062509382, Final residual = 0.00046364401, No Iterations 2
DILUPBiCGStab:  Solving for Uz, Initial residual = 0.073745749, Final residual = 0.00064832475, No Iterations 2
DILUPBiCGStab:  Solving for h, Initial residual = 0.043713144, Final residual = 0.00021797145, No Iterations 4
Min/max T:293.17215 300.37517
GAMG:  Solving for p_rgh, Initial residual = 0.21634653, Final residual = 0.0017200352, No Iterations 3
time step continuity errors : sum local = 0.00012636377, global = -4.2820464e-05, cumulative = -12.694041
DILUPBiCGStab:  Solving for w, Initial residual = 0.023587371, Final residual = 0.00014062335, No Iterations 3
bounding magU, min: 0 max: 7.2799043 average: 3.5919941
    max leaf temp tl=max(new_Tl) [0 0 0 1 0 0 0] 300.37526k, iteration i=0
    max leaf temp tl=300.62105 K, iteration i=1
    max leaf temp tl=300.61898 K, iteration i=2
    max leaf temp tl=300.61754 K, iteration i=3
    max leaf temp tl=300.61654 K, iteration i=4
    max leaf temp tl=300.61585 K, iteration i=5
    max leaf temp tl=300.61537 K, iteration i=6
    max leaf temp tl=300.61504 K, iteration i=7
    max leaf temp tl=300.61481 K, iteration i=8
    max leaf temp tl=300.61465 K, iteration i=9
    max leaf temp tl=300.61454 K, iteration i=10
    max leaf temp tl=300.61447 K, iteration i=11
Vegetation model:  Solving for Tl, Final residual = 0.021484414, Final relative residual = 7.1468331e-05, No Iterations 11
temperature parameters: max Tl = 300.60988, min T = 293.17215, max T = 300.37517
resistances: max rs = 12128.097, max ra = 52.052462
DILUPBiCGStab:  Solving for epsilon, Initial residual = 0.0048215717, Final residual = 2.7352172e-05, No Iterations 1
DILUPBiCGStab:  Solving for k, Initial residual = 0.035015932, Final residual = 0.00021474574, No Iterations 1

Internal iteration number: 15
DILUPBiCGStab:  Solving for Ux, Initial residual = 0.018019679, Final residual = 0.00016694133, No Iterations 2
DILUPBiCGStab:  Solving for Uy, Initial residual = 0.060795777, Final residual = 9.655345e-05, No Iterations 2
DILUPBiCGStab:  Solving for Uz, Initial residual = 0.064954406, Final residual = 0.00015859733, No Iterations 2
DILUPBiCGStab:  Solving for h, Initial residual = 0.04089651, Final residual = 0.00019353045, No Iterations 4
Min/max T:293.17352 300.37235
GAMG:  Solving for p_rgh, Initial residual = 0.24093959, Final residual = 0.0019504827, No Iterations 3
time step continuity errors : sum local = 9.8023917e-05, global = -1.2538778e-05, cumulative = -12.694054
DILUPBiCGStab:  Solving for w, Initial residual = 0.022508196, Final residual = 0.00014226628, No Iterations 3
bounding magU, min: 0 max: 7.3513413 average: 3.5517465
    max leaf temp tl=max(new_Tl) [0 0 0 1 0 0 0] 300.60988k, iteration i=0
    max leaf temp tl=300.75103 K, iteration i=1
    max leaf temp tl=300.74989 K, iteration i=2
    max leaf temp tl=300.7491 K, iteration i=3
    max leaf temp tl=300.74855 K, iteration i=4
    max leaf temp tl=300.74817 K, iteration i=5
    max leaf temp tl=300.74791 K, iteration i=6
    max leaf temp tl=300.74773 K, iteration i=7
    max leaf temp tl=300.7476 K, iteration i=8
    max leaf temp tl=300.74751 K, iteration i=9
    max leaf temp tl=300.74745 K, iteration i=10
Vegetation model:  Solving for Tl, Final residual = 0.029096649, Final relative residual = 9.6747781e-05, No Iterations 10
temperature parameters: max Tl = 300.74386, min T = 293.17352, max T = 300.37235
resistances: max rs = 12230.635, max ra = 55.416979
DILUPBiCGStab:  Solving for epsilon, Initial residual = 0.0048460111, Final residual = 2.7736207e-05, No Iterations 1
DILUPBiCGStab:  Solving for k, Initial residual = 0.033366843, Final residual = 0.0002121897, No Iterations 1

Internal iteration number: 16
DILUPBiCGStab:  Solving for Ux, Initial residual = 0.014417307, Final residual = 0.00011204881, No Iterations 2
DILUPBiCGStab:  Solving for Uy, Initial residual = 0.054875706, Final residual = 0.00017754328, No Iterations 3
DILUPBiCGStab:  Solving for Uz, Initial residual = 0.0608646, Final residual = 0.00013498323, No Iterations 2
DILUPBiCGStab:  Solving for h, Initial residual = 0.037952574, Final residual = 0.00019550004, No Iterations 4
Min/max T:293.18324 300.37811
GAMG:  Solving for p_rgh, Initial residual = 0.17582109, Final residual = 0.0013034493, No Iterations 3
time step continuity errors : sum local = 6.2454456e-05, global = 2.2977701e-05, cumulative = -12.694031
DILUPBiCGStab:  Solving for w, Initial residual = 0.021718817, Final residual = 0.00018360144, No Iterations 3
bounding magU, min: 0 max: 7.3510743 average: 3.5182266
    max leaf temp tl=max(new_Tl) [0 0 0 1 0 0 0] 300.74386k, iteration i=0
    max leaf temp tl=300.80724 K, iteration i=1
    max leaf temp tl=300.80666 K, iteration i=2
    max leaf temp tl=300.80625 K, iteration i=3
    max leaf temp tl=300.80598 K, iteration i=4
    max leaf temp tl=300.80578 K, iteration i=5
    max leaf temp tl=300.80565 K, iteration i=6
    max leaf temp tl=300.80555 K, iteration i=7
    max leaf temp tl=300.80549 K, iteration i=8
    max leaf temp tl=300.80545 K, iteration i=9
    max leaf temp tl=300.80542 K, iteration i=10
Vegetation model:  Solving for Tl, Final residual = 0.028231259, Final relative residual = 9.385223e-05, No Iterations 10
temperature parameters: max Tl = 300.80361, min T = 293.18324, max T = 300.37811
resistances: max rs = 12332.001, max ra = 57.645078
DILUPBiCGStab:  Solving for epsilon, Initial residual = 0.0048206688, Final residual = 2.7899964e-05, No Iterations 1
DILUPBiCGStab:  Solving for k, Initial residual = 0.032292487, Final residual = 0.00021131633, No Iterations 1

Internal iteration number: 17
DILUPBiCGStab:  Solving for Ux, Initial residual = 0.01282453, Final residual = 3.8780653e-05, No Iterations 2
DILUPBiCGStab:  Solving for Uy, Initial residual = 0.044789825, Final residual = 8.5320232e-05, No Iterations 2
DILUPBiCGStab:  Solving for Uz, Initial residual = 0.052691856, Final residual = 9.2973578e-05, No Iterations 2
DILUPBiCGStab:  Solving for h, Initial residual = 0.034684125, Final residual = 8.2989323e-05, No Iterations 4
Min/max T:293.1869 300.38148
GAMG:  Solving for p_rgh, Initial residual = 0.13982351, Final residual = 0.0013264733, No Iterations 3
time step continuity errors : sum local = 6.2851017e-05, global = 1.4993205e-05, cumulative = -12.694016
DILUPBiCGStab:  Solving for w, Initial residual = 0.02104451, Final residual = 0.00017520317, No Iterations 3
bounding magU, min: 0 max: 7.290148 average: 3.4853207
    max leaf temp tl=max(new_Tl) [0 0 0 1 0 0 0] 300.80361k, iteration i=0
    max leaf temp tl=300.83932 K, iteration i=1
    max leaf temp tl=300.83903 K, iteration i=2
    max leaf temp tl=300.83883 K, iteration i=3
    max leaf temp tl=300.83869 K, iteration i=4
    max leaf temp tl=300.83859 K, iteration i=5
    max leaf temp tl=300.83852 K, iteration i=6
    max leaf temp tl=300.83848 K, iteration i=7
    max leaf temp tl=300.83845 K, iteration i=8
    max leaf temp tl=300.83842 K, iteration i=9
    max leaf temp tl=300.83841 K, iteration i=10
Vegetation model:  Solving for Tl, Final residual = 0.027340273, Final relative residual = 9.0880262e-05, No Iterations 10
temperature parameters: max Tl = 300.8375, min T = 293.1869, max T = 300.38148
resistances: max rs = 12431.718, max ra = 59.332799
DILUPBiCGStab:  Solving for epsilon, Initial residual = 0.0047557453, Final residual = 2.778276e-05, No Iterations 1
DILUPBiCGStab:  Solving for k, Initial residual = 0.031564082, Final residual = 0.00020802445, No Iterations 1

Internal iteration number: 18
DILUPBiCGStab:  Solving for Ux, Initial residual = 0.011699016, Final residual = 4.6718623e-05, No Iterations 2
DILUPBiCGStab:  Solving for Uy, Initial residual = 0.035646596, Final residual = 0.00027027457, No Iterations 2
DILUPBiCGStab:  Solving for Uz, Initial residual = 0.045629809, Final residual = 0.00033820682, No Iterations 2
DILUPBiCGStab:  Solving for h, Initial residual = 0.032625318, Final residual = 0.00011481905, No Iterations 4
Min/max T:293.18853 300.38184
GAMG:  Solving for p_rgh, Initial residual = 0.11497819, Final residual = 0.00077894044, No Iterations 3
time step continuity errors : sum local = 3.8877447e-05, global = -1.5964539e-05, cumulative = -12.694032
DILUPBiCGStab:  Solving for w, Initial residual = 0.020337263, Final residual = 0.0001614339, No Iterations 3
bounding magU, min: 0 max: 7.230827 average: 3.4508716
    max leaf temp tl=max(new_Tl) [0 0 0 1 0 0 0] 300.8375k, iteration i=0
    max leaf temp tl=300.87462 K, iteration i=1
    max leaf temp tl=300.87427 K, iteration i=2
    max leaf temp tl=300.87403 K, iteration i=3
    max leaf temp tl=300.87386 K, iteration i=4
    max leaf temp tl=300.87374 K, iteration i=5
    max leaf temp tl=300.87366 K, iteration i=6
    max leaf temp tl=300.87361 K, iteration i=7
    max leaf temp tl=300.87357 K, iteration i=8
    max leaf temp tl=300.87354 K, iteration i=9
    max leaf temp tl=300.87352 K, iteration i=10
Vegetation model:  Solving for Tl, Final residual = 0.025828147, Final relative residual = 8.5843867e-05, No Iterations 10
temperature parameters: max Tl = 300.87247, min T = 293.18853, max T = 300.38184
resistances: max rs = 12525.352, max ra = 61.0099
DILUPBiCGStab:  Solving for epsilon, Initial residual = 0.0046828382, Final residual = 2.7429915e-05, No Iterations 1
DILUPBiCGStab:  Solving for k, Initial residual = 0.030526286, Final residual = 0.00020013436, No Iterations 1

Internal iteration number: 19
DILUPBiCGStab:  Solving for Ux, Initial residual = 0.010790499, Final residual = 0.00010199665, No Iterations 2
DILUPBiCGStab:  Solving for Uy, Initial residual = 0.035752594, Final residual = 0.00029375344, No Iterations 2
DILUPBiCGStab:  Solving for Uz, Initial residual = 0.039683162, Final residual = 0.00028917396, No Iterations 2
DILUPBiCGStab:  Solving for h, Initial residual = 0.029907957, Final residual = 0.00019608857, No Iterations 3
Min/max T:293.19214 300.37988
GAMG:  Solving for p_rgh, Initial residual = 0.12072254, Final residual = 0.0010454725, No Iterations 3
time step continuity errors : sum local = 4.121111e-05, global = -1.2151384e-05, cumulative = -12.694044
DILUPBiCGStab:  Solving for w, Initial residual = 0.019661287, Final residual = 0.00014520193, No Iterations 3
bounding magU, min: 0 max: 7.200644 average: 3.4177176
    max leaf temp tl=max(new_Tl) [0 0 0 1 0 0 0] 300.87247k, iteration i=0
    max leaf temp tl=300.89092 K, iteration i=1
    max leaf temp tl=300.89077 K, iteration i=2
    max leaf temp tl=300.89066 K, iteration i=3
    max leaf temp tl=300.89059 K, iteration i=4
    max leaf temp tl=300.89054 K, iteration i=5
    max leaf temp tl=300.8905 K, iteration i=6
    max leaf temp tl=300.89048 K, iteration i=7
    max leaf temp tl=300.89046 K, iteration i=8
    max leaf temp tl=300.89045 K, iteration i=9
    max leaf temp tl=300.89044 K, iteration i=10
Vegetation model:  Solving for Tl, Final residual = 0.023054383, Final relative residual = 7.6620524e-05, No Iterations 10
temperature parameters: max Tl = 300.88997, min T = 293.19214, max T = 300.37988
resistances: max rs = 12605.405, max ra = 62.371145
DILUPBiCGStab:  Solving for epsilon, Initial residual = 0.0046007499, Final residual = 2.6938708e-05, No Iterations 1
DILUPBiCGStab:  Solving for k, Initial residual = 0.029112973, Final residual = 0.00019001622, No Iterations 1

Internal iteration number: 20
DILUPBiCGStab:  Solving for Ux, Initial residual = 0.0093649647, Final residual = 6.532698e-05, No Iterations 2
DILUPBiCGStab:  Solving for Uy, Initial residual = 0.037770166, Final residual = 1.431465e-05, No Iterations 3
DILUPBiCGStab:  Solving for Uz, Initial residual = 0.035599603, Final residual = 0.00026215926, No Iterations 2
DILUPBiCGStab:  Solving for h, Initial residual = 0.028259259, Final residual = 0.00022417311, No Iterations 4
Min/max T:293.19767 300.37951
GAMG:  Solving for p_rgh, Initial residual = 0.10565643, Final residual = 0.00070063704, No Iterations 3
time step continuity errors : sum local = 2.5184661e-05, global = -7.3974263e-07, cumulative = -12.694044
DILUPBiCGStab:  Solving for w, Initial residual = 0.019042951, Final residual = 0.00013603573, No Iterations 3
bounding magU, min: 0 max: 7.1892024 average: 3.3886945
    max leaf temp tl=max(new_Tl) [0 0 0 1 0 0 0] 300.88997k, iteration i=0
    max leaf temp tl=300.89281 K, iteration i=1
    max leaf temp tl=300.89271 K, iteration i=2
    max leaf temp tl=300.89264 K, iteration i=3
    max leaf temp tl=300.89259 K, iteration i=4
    max leaf temp tl=300.89256 K, iteration i=5
    max leaf temp tl=300.89253 K, iteration i=6
    max leaf temp tl=300.89251 K, iteration i=7
    max leaf temp tl=300.8925 K, iteration i=8
    max leaf temp tl=300.8925 K, iteration i=9
    max leaf temp tl=300.89249 K, iteration i=10
Vegetation model:  Solving for Tl, Final residual = 0.023270922, Final relative residual = 7.7339658e-05, No Iterations 10
temperature parameters: max Tl = 300.89218, min T = 293.19767, max T = 300.37951
resistances: max rs = 12673.261, max ra = 62.995873
DILUPBiCGStab:  Solving for epsilon, Initial residual = 0.0045016941, Final residual = 2.6352524e-05, No Iterations 1
DILUPBiCGStab:  Solving for k, Initial residual = 0.027703672, Final residual = 0.00018024381, No Iterations 1

Internal iteration number: 21
DILUPBiCGStab:  Solving for Ux, Initial residual = 0.0083200807, Final residual = 7.0435491e-05, No Iterations 2
DILUPBiCGStab:  Solving for Uy, Initial residual = 0.033895892, Final residual = 7.5955293e-05, No Iterations 2
DILUPBiCGStab:  Solving for Uz, Initial residual = 0.033567983, Final residual = 0.00024112379, No Iterations 2
DILUPBiCGStab:  Solving for h, Initial residual = 0.026033432, Final residual = 0.00017515459, No Iterations 3
Min/max T:293.20407 300.38135
GAMG:  Solving for p_rgh, Initial residual = 0.087598658, Final residual = 0.00052442356, No Iterations 3
time step continuity errors : sum local = 1.8287063e-05, global = 5.9551855e-06, cumulative = -12.694039
DILUPBiCGStab:  Solving for w, Initial residual = 0.018478493, Final residual = 0.00013041678, No Iterations 3
bounding magU, min: 0 max: 7.1595162 average: 3.3618405
    max leaf temp tl=max(new_Tl) [0 0 0 1 0 0 0] 300.89218k, iteration i=0
    max leaf temp tl=300.90123 K, iteration i=1
    max leaf temp tl=300.901 K, iteration i=2
    max leaf temp tl=300.90084 K, iteration i=3
    max leaf temp tl=300.90073 K, iteration i=4
    max leaf temp tl=300.90065 K, iteration i=5
    max leaf temp tl=300.9006 K, iteration i=6
    max leaf temp tl=300.90056 K, iteration i=7
    max leaf temp tl=300.90054 K, iteration i=8
    max leaf temp tl=300.90052 K, iteration i=9
    max leaf temp tl=300.90051 K, iteration i=10
Vegetation model:  Solving for Tl, Final residual = 0.022642256, Final relative residual = 7.5248316e-05, No Iterations 10
temperature parameters: max Tl = 300.89974, min T = 293.20407, max T = 300.38135
resistances: max rs = 12726.611, max ra = 63.25755
DILUPBiCGStab:  Solving for epsilon, Initial residual = 0.004376085, Final residual = 2.5646914e-05, No Iterations 1
DILUPBiCGStab:  Solving for k, Initial residual = 0.026500605, Final residual = 0.00017142151, No Iterations 1

Internal iteration number: 22
DILUPBiCGStab:  Solving for Ux, Initial residual = 0.0076628096, Final residual = 1.7713152e-05, No Iterations 2
DILUPBiCGStab:  Solving for Uy, Initial residual = 0.028456507, Final residual = 0.00019539724, No Iterations 2
DILUPBiCGStab:  Solving for Uz, Initial residual = 0.031097164, Final residual = 0.00013248393, No Iterations 2
DILUPBiCGStab:  Solving for h, Initial residual = 0.024978973, Final residual = 0.00016584081, No Iterations 3
Min/max T:293.21235 300.38257
GAMG:  Solving for p_rgh, Initial residual = 0.072736584, Final residual = 0.00054770925, No Iterations 3
time step continuity errors : sum local = 1.9176711e-05, global = 4.2256565e-06, cumulative = -12.694034
DILUPBiCGStab:  Solving for w, Initial residual = 0.017947781, Final residual = 0.00012554301, No Iterations 3
bounding magU, min: 0 max: 7.1181109 average: 3.3353674
    max leaf temp tl=max(new_Tl) [0 0 0 1 0 0 0] 300.89974k, iteration i=0
    max leaf temp tl=300.91429 K, iteration i=1
    max leaf temp tl=300.91409 K, iteration i=2
    max leaf temp tl=300.91395 K, iteration i=3
    max leaf temp tl=300.91385 K, iteration i=4
    max leaf temp tl=300.91378 K, iteration i=5
    max leaf temp tl=300.91374 K, iteration i=6
    max leaf temp tl=300.9137 K, iteration i=7
    max leaf temp tl=300.91368 K, iteration i=8
    max leaf temp tl=300.91367 K, iteration i=9
    max leaf temp tl=300.91366 K, iteration i=10
Vegetation model:  Solving for Tl, Final residual = 0.022530972, Final relative residual = 7.4875206e-05, No Iterations 10
temperature parameters: max Tl = 300.91299, min T = 293.21235, max T = 300.38257
resistances: max rs = 12766.191, max ra = 63.454612
DILUPBiCGStab:  Solving for epsilon, Initial residual = 0.004239488, Final residual = 2.4904774e-05, No Iterations 1
DILUPBiCGStab:  Solving for k, Initial residual = 0.025386014, Final residual = 0.0001626168, No Iterations 1

Internal iteration number: 23
DILUPBiCGStab:  Solving for Ux, Initial residual = 0.007134976, Final residual = 3.6617804e-05, No Iterations 2
DILUPBiCGStab:  Solving for Uy, Initial residual = 0.027815226, Final residual = 0.00024956948, No Iterations 2
DILUPBiCGStab:  Solving for Uz, Initial residual = 0.028561456, Final residual = 7.6513019e-05, No Iterations 2
DILUPBiCGStab:  Solving for h, Initial residual = 0.023540592, Final residual = 0.00016494807, No Iterations 3
Min/max T:293.2189 300.38256
GAMG:  Solving for p_rgh, Initial residual = 0.070188115, Final residual = 0.00029420359, No Iterations 3
time step continuity errors : sum local = 1.010988e-05, global = -3.6325412e-06, cumulative = -12.694038
DILUPBiCGStab:  Solving for w, Initial residual = 0.01746028, Final residual = 0.00012127989, No Iterations 3
bounding magU, min: 0 max: 7.0782822 average: 3.3093986
    max leaf temp tl=max(new_Tl) [0 0 0 1 0 0 0] 300.91299k, iteration i=0
    max leaf temp tl=300.91773 K, iteration i=1
    max leaf temp tl=300.91769 K, iteration i=2
    max leaf temp tl=300.91767 K, iteration i=3
    max leaf temp tl=300.91765 K, iteration i=4
    max leaf temp tl=300.91764 K, iteration i=5
    max leaf temp tl=300.91763 K, iteration i=6
    max leaf temp tl=300.91762 K, iteration i=7
    max leaf temp tl=300.91762 K, iteration i=8
    max leaf temp tl=300.91762 K, iteration i=9
    max leaf temp tl=300.91762 K, iteration i=10
Vegetation model:  Solving for Tl, Final residual = 0.022312488, Final relative residual = 7.4148161e-05, No Iterations 10
temperature parameters: max Tl = 300.91749, min T = 293.2189, max T = 300.38256
resistances: max rs = 12793.099, max ra = 63.536779
DILUPBiCGStab:  Solving for epsilon, Initial residual = 0.0041089463, Final residual = 2.4161268e-05, No Iterations 1
DILUPBiCGStab:  Solving for k, Initial residual = 0.024267505, Final residual = 0.00015398644, No Iterations 1

Internal iteration number: 24
DILUPBiCGStab:  Solving for Ux, Initial residual = 0.006572944, Final residual = 2.880717e-05, No Iterations 2
DILUPBiCGStab:  Solving for Uy, Initial residual = 0.028016685, Final residual = 0.00026432485, No Iterations 2
DILUPBiCGStab:  Solving for Uz, Initial residual = 0.02604036, Final residual = 0.00023863598, No Iterations 2
DILUPBiCGStab:  Solving for h, Initial residual = 0.022622372, Final residual = 0.00015897974, No Iterations 3
Min/max T:293.22707 300.38209
GAMG:  Solving for p_rgh, Initial residual = 0.064876616, Final residual = 0.00033414095, No Iterations 3
time step continuity errors : sum local = 1.0987558e-05, global = -3.1948694e-06, cumulative = -12.694041
DILUPBiCGStab:  Solving for w, Initial residual = 0.017013122, Final residual = 0.00011655389, No Iterations 3
bounding magU, min: 0 max: 7.0443158 average: 3.2850337
    max leaf temp tl=max(new_Tl) [0 0 0 1 0 0 0] 300.91749k, iteration i=0
    max leaf temp tl=300.93186 K, iteration i=1
    max leaf temp tl=300.93171 K, iteration i=2
    max leaf temp tl=300.9316 K, iteration i=3
    max leaf temp tl=300.93152 K, iteration i=4
    max leaf temp tl=300.93147 K, iteration i=5
    max leaf temp tl=300.93144 K, iteration i=6
    max leaf temp tl=300.93141 K, iteration i=7
    max leaf temp tl=300.93139 K, iteration i=8
    max leaf temp tl=300.93138 K, iteration i=9
    max leaf temp tl=300.93137 K, iteration i=10
Vegetation model:  Solving for Tl, Final residual = 0.021857704, Final relative residual = 7.2633518e-05, No Iterations 10
temperature parameters: max Tl = 300.93088, min T = 293.22707, max T = 300.38209
resistances: max rs = 12808.689, max ra = 63.387351
DILUPBiCGStab:  Solving for epsilon, Initial residual = 0.0039809142, Final residual = 2.3454782e-05, No Iterations 1
DILUPBiCGStab:  Solving for k, Initial residual = 0.023130813, Final residual = 0.00014585552, No Iterations 1

Internal iteration number: 25
DILUPBiCGStab:  Solving for Ux, Initial residual = 0.0059969238, Final residual = 2.9634707e-05, No Iterations 2
DILUPBiCGStab:  Solving for Uy, Initial residual = 0.026589368, Final residual = 0.00022264031, No Iterations 2
DILUPBiCGStab:  Solving for Uz, Initial residual = 0.024476395, Final residual = 0.00018578401, No Iterations 2
DILUPBiCGStab:  Solving for h, Initial residual = 0.021396758, Final residual = 0.00013401364, No Iterations 3
Min/max T:293.23796 300.38213
GAMG:  Solving for p_rgh, Initial residual = 0.055994712, Final residual = 0.0002654641, No Iterations 3
time step continuity errors : sum local = 8.5011881e-06, global = 6.3817778e-08, cumulative = -12.694041
DILUPBiCGStab:  Solving for w, Initial residual = 0.016603953, Final residual = 0.00011201398, No Iterations 3
bounding magU, min: 0 max: 7.0151457 average: 3.2624237
    max leaf temp tl=max(new_Tl) [0 0 0 1 0 0 0] 300.93088k, iteration i=0
    max leaf temp tl=300.93547 K, iteration i=1
    max leaf temp tl=300.93527 K, iteration i=2
    max leaf temp tl=300.93513 K, iteration i=3
    max leaf temp tl=300.93503 K, iteration i=4
    max leaf temp tl=300.93497 K, iteration i=5
    max leaf temp tl=300.93492 K, iteration i=6
    max leaf temp tl=300.93489 K, iteration i=7
    max leaf temp tl=300.93487 K, iteration i=8
    max leaf temp tl=300.93485 K, iteration i=9
    max leaf temp tl=300.93484 K, iteration i=10
Vegetation model:  Solving for Tl, Final residual = 0.021192531, Final relative residual = 7.0422324e-05, No Iterations 10
temperature parameters: max Tl = 300.93422, min T = 293.23796, max T = 300.38213
resistances: max rs = 12819.591, max ra = 64.287736
DILUPBiCGStab:  Solving for epsilon, Initial residual = 0.0038533811, Final residual = 2.2727306e-05, No Iterations 1
DILUPBiCGStab:  Solving for k, Initial residual = 0.02205282, Final residual = 0.00013845589, No Iterations 1

Internal iteration number: 26
DILUPBiCGStab:  Solving for Ux, Initial residual = 0.0055306074, Final residual = 4.7089564e-05, No Iterations 2
DILUPBiCGStab:  Solving for Uy, Initial residual = 0.024382823, Final residual = 0.00018754715, No Iterations 2
DILUPBiCGStab:  Solving for Uz, Initial residual = 0.02290659, Final residual = 0.00018908744, No Iterations 2
DILUPBiCGStab:  Solving for h, Initial residual = 0.020695653, Final residual = 0.00013209481, No Iterations 3
Min/max T:293.25037 300.38256
GAMG:  Solving for p_rgh, Initial residual = 0.051590115, Final residual = 0.00017225207, No Iterations 3
time step continuity errors : sum local = 5.4516069e-06, global = 2.214607e-06, cumulative = -12.694039
DILUPBiCGStab:  Solving for w, Initial residual = 0.016227956, Final residual = 0.00010740863, No Iterations 3
bounding magU, min: 0 max: 6.9957359 average: 3.2408153
    max leaf temp tl=max(new_Tl) [0 0 0 1 0 0 0] 300.93422k, iteration i=0
    max leaf temp tl=300.93916 K, iteration i=1
    max leaf temp tl=300.93912 K, iteration i=2
    max leaf temp tl=300.9391 K, iteration i=3
    max leaf temp tl=300.93908 K, iteration i=4
    max leaf temp tl=300.93906 K, iteration i=5
    max leaf temp tl=300.93905 K, iteration i=6
    max leaf temp tl=300.93905 K, iteration i=7
    max leaf temp tl=300.93904 K, iteration i=8
    max leaf temp tl=300.93904 K, iteration i=9
Vegetation model:  Solving for Tl, Final residual = 0.028679938, Final relative residual = 9.5301486e-05, No Iterations 9
temperature parameters: max Tl = 300.93886, min T = 293.25037, max T = 300.38256
resistances: max rs = 12826.141, max ra = 64.979931
DILUPBiCGStab:  Solving for epsilon, Initial residual = 0.0037242829, Final residual = 2.1967112e-05, No Iterations 1
DILUPBiCGStab:  Solving for k, Initial residual = 0.021060586, Final residual = 0.00013166994, No Iterations 1

Internal iteration number: 27
DILUPBiCGStab:  Solving for Ux, Initial residual = 0.005125277, Final residual = 1.8084139e-06, No Iterations 3
DILUPBiCGStab:  Solving for Uy, Initial residual = 0.022997373, Final residual = 0.00018157786, No Iterations 2
DILUPBiCGStab:  Solving for Uz, Initial residual = 0.021579092, Final residual = 0.00017510087, No Iterations 2
DILUPBiCGStab:  Solving for h, Initial residual = 0.01999971, Final residual = 4.6949726e-05, No Iterations 4
Min/max T:293.26202 300.38282
GAMG:  Solving for p_rgh, Initial residual = 0.048810935, Final residual = 0.00018446321, No Iterations 3
time step continuity errors : sum local = 5.7791169e-06, global = 1.8253669e-06, cumulative = -12.694037
DILUPBiCGStab:  Solving for w, Initial residual = 0.015888449, Final residual = 0.000102358, No Iterations 3
bounding magU, min: 0 max: 6.9783885 average: 3.2200116
    max leaf temp tl=max(new_Tl) [0 0 0 1 0 0 0] 300.93886k, iteration i=0
    max leaf temp tl=300.94337 K, iteration i=1
    max leaf temp tl=300.94333 K, iteration i=2
    max leaf temp tl=300.9433 K, iteration i=3
    max leaf temp tl=300.94329 K, iteration i=4
    max leaf temp tl=300.94327 K, iteration i=5
    max leaf temp tl=300.94327 K, iteration i=6
    max leaf temp tl=300.94326 K, iteration i=7
    max leaf temp tl=300.94326 K, iteration i=8
    max leaf temp tl=300.94325 K, iteration i=9
Vegetation model:  Solving for Tl, Final residual = 0.027837353, Final relative residual = 9.2500338e-05, No Iterations 9
temperature parameters: max Tl = 300.94309, min T = 293.26202, max T = 300.38282
resistances: max rs = 12831.312, max ra = 65.523347
DILUPBiCGStab:  Solving for epsilon, Initial residual = 0.0035980701, Final residual = 2.1202584e-05, No Iterations 1
DILUPBiCGStab:  Solving for k, Initial residual = 0.020158259, Final residual = 0.00012536229, No Iterations 1

Internal iteration number: 28
DILUPBiCGStab:  Solving for Ux, Initial residual = 0.0047402473, Final residual = 1.6390469e-06, No Iterations 3
DILUPBiCGStab:  Solving for Uy, Initial residual = 0.02256864, Final residual = 0.00017412049, No Iterations 2
DILUPBiCGStab:  Solving for Uz, Initial residual = 0.020154792, Final residual = 0.00019625645, No Iterations 2
DILUPBiCGStab:  Solving for h, Initial residual = 0.019448114, Final residual = 0.00011158066, No Iterations 3
Min/max T:293.27843 300.3828
GAMG:  Solving for p_rgh, Initial residual = 0.045643749, Final residual = 0.00017432243, No Iterations 3
time step continuity errors : sum local = 5.4002312e-06, global = -1.6355015e-06, cumulative = -12.694039
DILUPBiCGStab:  Solving for w, Initial residual = 0.015583167, Final residual = 9.827842e-05, No Iterations 3
bounding magU, min: 0 max: 6.9654599 average: 3.1999407
    max leaf temp tl=max(new_Tl) [0 0 0 1 0 0 0] 300.94309k, iteration i=0
    max leaf temp tl=300.94501 K, iteration i=1
    max leaf temp tl=300.94499 K, iteration i=2
    max leaf temp tl=300.94498 K, iteration i=3
    max leaf temp tl=300.94497 K, iteration i=4
    max leaf temp tl=300.94497 K, iteration i=5
    max leaf temp tl=300.94496 K, iteration i=6
    max leaf temp tl=300.94496 K, iteration i=7
    max leaf temp tl=300.94496 K, iteration i=8
    max leaf temp tl=300.94496 K, iteration i=9
Vegetation model:  Solving for Tl, Final residual = 0.026484898, Final relative residual = 8.8005787e-05, No Iterations 9
temperature parameters: max Tl = 300.94489, min T = 293.27843, max T = 300.3828
resistances: max rs = 12832.157, max ra = 66.007639
DILUPBiCGStab:  Solving for epsilon, Initial residual = 0.0034777461, Final residual = 2.0453489e-05, No Iterations 1
DILUPBiCGStab:  Solving for k, Initial residual = 0.019324895, Final residual = 0.00011956605, No Iterations 1

Internal iteration number: 29
DILUPBiCGStab:  Solving for Ux, Initial residual = 0.0043824593, Final residual = 1.4853995e-06, No Iterations 3
DILUPBiCGStab:  Solving for Uy, Initial residual = 0.021833716, Final residual = 0.00016919327, No Iterations 2
DILUPBiCGStab:  Solving for Uz, Initial residual = 0.019016739, Final residual = 0.00015397292, No Iterations 2
DILUPBiCGStab:  Solving for h, Initial residual = 0.018979589, Final residual = 0.00012295268, No Iterations 3
Min/max T:293.3 300.38311
GAMG:  Solving for p_rgh, Initial residual = 0.042441131, Final residual = 0.00017055014, No Iterations 3
time step continuity errors : sum local = 5.2157702e-06, global = -1.4685826e-06, cumulative = -12.69404
DILUPBiCGStab:  Solving for w, Initial residual = 0.015310572, Final residual = 9.4672685e-05, No Iterations 3
bounding magU, min: 0 max: 6.957043 average: 3.1807789
    max leaf temp tl=max(new_Tl) [0 0 0 1 0 0 0] 300.94489k, iteration i=0
    max leaf temp tl=300.94619 K, iteration i=1
    max leaf temp tl=300.94618 K, iteration i=2
    max leaf temp tl=300.94617 K, iteration i=3
    max leaf temp tl=300.94617 K, iteration i=4
    max leaf temp tl=300.94617 K, iteration i=5
    max leaf temp tl=300.94616 K, iteration i=6
    max leaf temp tl=300.94616 K, iteration i=7
    max leaf temp tl=300.94616 K, iteration i=8
    max leaf temp tl=300.94616 K, iteration i=9
Vegetation model:  Solving for Tl, Final residual = 0.02646313, Final relative residual = 8.7933106e-05, No Iterations 9
temperature parameters: max Tl = 300.94611, min T = 293.3, max T = 300.38311
resistances: max rs = 12832.957, max ra = 66.382009
DILUPBiCGStab:  Solving for epsilon, Initial residual = 0.0033610468, Final residual = 1.970517e-05, No Iterations 1
DILUPBiCGStab:  Solving for k, Initial residual = 0.01854591, Final residual = 0.00011439905, No Iterations 1

Internal iteration number: 30
DILUPBiCGStab:  Solving for Ux, Initial residual = 0.0040736372, Final residual = 4.0616425e-05, No Iterations 2
DILUPBiCGStab:  Solving for Uy, Initial residual = 0.020794221, Final residual = 0.00015901153, No Iterations 2
DILUPBiCGStab:  Solving for Uz, Initial residual = 0.017963851, Final residual = 0.00016537468, No Iterations 2
DILUPBiCGStab:  Solving for h, Initial residual = 0.018429812, Final residual = 0.00012459855, No Iterations 3
Min/max T:293.3182 300.3835
GAMG:  Solving for p_rgh, Initial residual = 0.038970464, Final residual = 0.00015257384, No Iterations 3
time step continuity errors : sum local = 4.6117778e-06, global = -8.3788679e-07, cumulative = -12.694041
DILUPBiCGStab:  Solving for w, Initial residual = 0.015064192, Final residual = 9.3996356e-05, No Iterations 3
bounding magU, min: 0 max: 6.9508662 average: 3.1624163
    max leaf temp tl=max(new_Tl) [0 0 0 1 0 0 0] 300.94611k, iteration i=0
    max leaf temp tl=300.94703 K, iteration i=1
    max leaf temp tl=300.94703 K, iteration i=2
    max leaf temp tl=300.94702 K, iteration i=3
    max leaf temp tl=300.94702 K, iteration i=4
    max leaf temp tl=300.94702 K, iteration i=5
    max leaf temp tl=300.94701 K, iteration i=6
    max leaf temp tl=300.94701 K, iteration i=7
    max leaf temp tl=300.94701 K, iteration i=8
    max leaf temp tl=300.94701 K, iteration i=9
Vegetation model:  Solving for Tl, Final residual = 0.02592452, Final relative residual = 8.6143137e-05, No Iterations 9
temperature parameters: max Tl = 300.94698, min T = 293.3182, max T = 300.3835
resistances: max rs = 12833.179, max ra = 66.607328
DILUPBiCGStab:  Solving for epsilon, Initial residual = 0.0032474186, Final residual = 1.8960759e-05, No Iterations 1
DILUPBiCGStab:  Solving for k, Initial residual = 0.017816337, Final residual = 0.00010958684, No Iterations 1

Internal iteration number: 31
DILUPBiCGStab:  Solving for Ux, Initial residual = 0.0037949795, Final residual = 3.1708496e-05, No Iterations 2
DILUPBiCGStab:  Solving for Uy, Initial residual = 0.019700144, Final residual = 0.00014802312, No Iterations 2
DILUPBiCGStab:  Solving for Uz, Initial residual = 0.017027464, Final residual = 0.00014035106, No Iterations 2
DILUPBiCGStab:  Solving for h, Initial residual = 0.018096208, Final residual = 0.00015716397, No Iterations 3
Min/max T:293.34261 300.38396
GAMG:  Solving for p_rgh, Initial residual = 0.036553188, Final residual = 0.0001370991, No Iterations 3
time step continuity errors : sum local = 4.1061257e-06, global = 3.7554267e-07, cumulative = -12.694041
DILUPBiCGStab:  Solving for w, Initial residual = 0.014841847, Final residual = 9.2448293e-05, No Iterations 3
bounding magU, min: 0 max: 6.9472705 average: 3.1448741
    max leaf temp tl=max(new_Tl) [0 0 0 1 0 0 0] 300.94698k, iteration i=0
    max leaf temp tl=300.94768 K, iteration i=1
    max leaf temp tl=300.94767 K, iteration i=2
    max leaf temp tl=300.94767 K, iteration i=3
    max leaf temp tl=300.94767 K, iteration i=4
    max leaf temp tl=300.94766 K, iteration i=5
    max leaf temp tl=300.94766 K, iteration i=6
    max leaf temp tl=300.94766 K, iteration i=7
    max leaf temp tl=300.94766 K, iteration i=8
    max leaf temp tl=300.94766 K, iteration i=9
Vegetation model:  Solving for Tl, Final residual = 0.025422858, Final relative residual = 8.4476013e-05, No Iterations 9
temperature parameters: max Tl = 300.94763, min T = 293.34261, max T = 300.38396
resistances: max rs = 12833.29, max ra = 66.699697
DILUPBiCGStab:  Solving for epsilon, Initial residual = 0.0031354373, Final residual = 1.8227173e-05, No Iterations 1
DILUPBiCGStab:  Solving for k, Initial residual = 0.017145421, Final residual = 0.00010515687, No Iterations 1

Internal iteration number: 32
DILUPBiCGStab:  Solving for Ux, Initial residual = 0.0035361572, Final residual = 2.3783864e-05, No Iterations 2
DILUPBiCGStab:  Solving for Uy, Initial residual = 0.018963934, Final residual = 0.00014072485, No Iterations 2
DILUPBiCGStab:  Solving for Uz, Initial residual = 0.016056065, Final residual = 0.00014143954, No Iterations 2
DILUPBiCGStab:  Solving for h, Initial residual = 0.017716322, Final residual = 0.00011409076, No Iterations 3
Min/max T:293.37117 300.3844
GAMG:  Solving for p_rgh, Initial residual = 0.03423658, Final residual = 0.00013231653, No Iterations 3
time step continuity errors : sum local = 3.9355424e-06, global = -2.2344766e-07, cumulative = -12.694041
DILUPBiCGStab:  Solving for w, Initial residual = 0.014642801, Final residual = 9.3082979e-05, No Iterations 3
bounding magU, min: 0 max: 6.9451902 average: 3.1280982
    max leaf temp tl=max(new_Tl) [0 0 0 1 0 0 0] 300.94763k, iteration i=0
    max leaf temp tl=300.94824 K, iteration i=1
    max leaf temp tl=300.94824 K, iteration i=2
    max leaf temp tl=300.94823 K, iteration i=3
    max leaf temp tl=300.94823 K, iteration i=4
    max leaf temp tl=300.94823 K, iteration i=5
    max leaf temp tl=300.94823 K, iteration i=6
    max leaf temp tl=300.94823 K, iteration i=7
    max leaf temp tl=300.94823 K, iteration i=8
    max leaf temp tl=300.94823 K, iteration i=9
Vegetation model:  Solving for Tl, Final residual = 0.024937194, Final relative residual = 8.2862073e-05, No Iterations 9
temperature parameters: max Tl = 300.9482, min T = 293.37117, max T = 300.3844
resistances: max rs = 12833.279, max ra = 66.704475
DILUPBiCGStab:  Solving for epsilon, Initial residual = 0.003027078, Final residual = 1.7508693e-05, No Iterations 1
DILUPBiCGStab:  Solving for k, Initial residual = 0.016517741, Final residual = 0.00010110361, No Iterations 1

Internal iteration number: 33
DILUPBiCGStab:  Solving for Ux, Initial residual = 0.0032995035, Final residual = 1.680342e-05, No Iterations 2
DILUPBiCGStab:  Solving for Uy, Initial residual = 0.018318397, Final residual = 0.00013394037, No Iterations 2
DILUPBiCGStab:  Solving for Uz, Initial residual = 0.015153363, Final residual = 0.00011947968, No Iterations 2
DILUPBiCGStab:  Solving for h, Initial residual = 0.017457024, Final residual = 0.00010043076, No Iterations 3
Min/max T:293.40438 300.38476
GAMG:  Solving for p_rgh, Initial residual = 0.03258973, Final residual = 0.00012519562, No Iterations 3
time step continuity errors : sum local = 3.6970745e-06, global = -9.502403e-07, cumulative = -12.694042
DILUPBiCGStab:  Solving for w, Initial residual = 0.014464352, Final residual = 9.223668e-05, No Iterations 3
bounding magU, min: 0 max: 6.9438594 average: 3.1121
    max leaf temp tl=max(new_Tl) [0 0 0 1 0 0 0] 300.9482k, iteration i=0
    max leaf temp tl=300.94841 K, iteration i=1
    max leaf temp tl=300.94841 K, iteration i=2
    max leaf temp tl=300.9484 K, iteration i=3
    max leaf temp tl=300.9484 K, iteration i=4
    max leaf temp tl=300.9484 K, iteration i=5
    max leaf temp tl=300.9484 K, iteration i=6
    max leaf temp tl=300.9484 K, iteration i=7
    max leaf temp tl=300.9484 K, iteration i=8
    max leaf temp tl=300.9484 K, iteration i=9
Vegetation model:  Solving for Tl, Final residual = 0.024551716, Final relative residual = 8.1581149e-05, No Iterations 9
temperature parameters: max Tl = 300.94839, min T = 293.40438, max T = 300.38476
resistances: max rs = 12833.235, max ra = 66.638117
DILUPBiCGStab:  Solving for epsilon, Initial residual = 0.0029224519, Final residual = 1.681387e-05, No Iterations 1
DILUPBiCGStab:  Solving for k, Initial residual = 0.015930928, Final residual = 9.7385476e-05, No Iterations 1

Internal iteration number: 34
DILUPBiCGStab:  Solving for Ux, Initial residual = 0.0030931246, Final residual = 1.16219e-05, No Iterations 2
DILUPBiCGStab:  Solving for Uy, Initial residual = 0.017651583, Final residual = 0.00012899829, No Iterations 2
DILUPBiCGStab:  Solving for Uz, Initial residual = 0.014357646, Final residual = 0.0001117208, No Iterations 2
DILUPBiCGStab:  Solving for h, Initial residual = 0.017185308, Final residual = 0.00011020551, No Iterations 3
Min/max T:293.44452 300.38509
GAMG:  Solving for p_rgh, Initial residual = 0.030714493, Final residual = 0.00011683885, No Iterations 3
time step continuity errors : sum local = 3.4246998e-06, global = -9.1580248e-07, cumulative = -12.694043
DILUPBiCGStab:  Solving for w, Initial residual = 0.014304149, Final residual = 9.2995475e-05, No Iterations 3
bounding magU, min: 0 max: 6.9433308 average: 3.0969129
    max leaf temp tl=max(new_Tl) [0 0 0 1 0 0 0] 300.94839k, iteration i=0
    max leaf temp tl=300.94858 K, iteration i=1
    max leaf temp tl=300.94858 K, iteration i=2
    max leaf temp tl=300.94858 K, iteration i=3
    max leaf temp tl=300.94858 K, iteration i=4
    max leaf temp tl=300.94858 K, iteration i=5
    max leaf temp tl=300.94858 K, iteration i=6
    max leaf temp tl=300.94858 K, iteration i=7
    max leaf temp tl=300.94858 K, iteration i=8
    max leaf temp tl=300.94858 K, iteration i=9
Vegetation model:  Solving for Tl, Final residual = 0.024144422, Final relative residual = 8.0227733e-05, No Iterations 9
temperature parameters: max Tl = 300.94857, min T = 293.44452, max T = 300.38509
resistances: max rs = 12833.174, max ra = 66.502533
DILUPBiCGStab:  Solving for epsilon, Initial residual = 0.0028209037, Final residual = 1.6138956e-05, No Iterations 1
DILUPBiCGStab:  Solving for k, Initial residual = 0.01538029, Final residual = 9.3836378e-05, No Iterations 1

Internal iteration number: 35
DILUPBiCGStab:  Solving for Ux, Initial residual = 0.0029084504, Final residual = 8.2143802e-06, No Iterations 2
DILUPBiCGStab:  Solving for Uy, Initial residual = 0.01698794, Final residual = 0.00012174932, No Iterations 2
DILUPBiCGStab:  Solving for Uz, Initial residual = 0.013706446, Final residual = 9.9352497e-05, No Iterations 2
DILUPBiCGStab:  Solving for h, Initial residual = 0.017077372, Final residual = 0.0001277161, No Iterations 3
Min/max T:293.49539 300.38545
GAMG:  Solving for p_rgh, Initial residual = 0.0295468, Final residual = 0.00011130583, No Iterations 3
time step continuity errors : sum local = 3.2401574e-06, global = -8.0487437e-07, cumulative = -12.694044
DILUPBiCGStab:  Solving for w, Initial residual = 0.014160032, Final residual = 9.1915056e-05, No Iterations 3
bounding magU, min: 0 max: 6.9434303 average: 3.0824922
    max leaf temp tl=max(new_Tl) [0 0 0 1 0 0 0] 300.94857k, iteration i=0
    max leaf temp tl=300.94882 K, iteration i=1
    max leaf temp tl=300.94882 K, iteration i=2
    max leaf temp tl=300.94881 K, iteration i=3
    max leaf temp tl=300.94881 K, iteration i=4
    max leaf temp tl=300.94881 K, iteration i=5
    max leaf temp tl=300.94881 K, iteration i=6
    max leaf temp tl=300.94881 K, iteration i=7
    max leaf temp tl=300.94881 K, iteration i=8
    max leaf temp tl=300.94881 K, iteration i=9
Vegetation model:  Solving for Tl, Final residual = 0.023746599, Final relative residual = 7.8905775e-05, No Iterations 9
temperature parameters: max Tl = 300.9488, min T = 293.4954, max T = 300.38545
resistances: max rs = 12833.104, max ra = 66.306927
DILUPBiCGStab:  Solving for epsilon, Initial residual = 0.0027232155, Final residual = 1.5483294e-05, No Iterations 1
DILUPBiCGStab:  Solving for k, Initial residual = 0.014861388, Final residual = 9.0558818e-05, No Iterations 1

Internal iteration number: 36
DILUPBiCGStab:  Solving for Ux, Initial residual = 0.0027336887, Final residual = 2.4073211e-05, No Iterations 2
DILUPBiCGStab:  Solving for Uy, Initial residual = 0.016362017, Final residual = 0.00011576447, No Iterations 2
DILUPBiCGStab:  Solving for Uz, Initial residual = 0.013038058, Final residual = 0.00010000792, No Iterations 2
DILUPBiCGStab:  Solving for h, Initial residual = 0.016878546, Final residual = 0.00011043818, No Iterations 3
Min/max T:293.55218 300.38587
GAMG:  Solving for p_rgh, Initial residual = 0.028491711, Final residual = 0.00010584242, No Iterations 3
time step continuity errors : sum local = 3.0652339e-06, global = -7.5266559e-07, cumulative = -12.694044
DILUPBiCGStab:  Solving for w, Initial residual = 0.014031568, Final residual = 9.2093018e-05, No Iterations 3
bounding magU, min: 0 max: 6.943949 average: 3.0687486
    max leaf temp tl=max(new_Tl) [0 0 0 1 0 0 0] 300.9488k, iteration i=0
    max leaf temp tl=300.94912 K, iteration i=1
    max leaf temp tl=300.94911 K, iteration i=2
    max leaf temp tl=300.94911 K, iteration i=3
    max leaf temp tl=300.94911 K, iteration i=4
    max leaf temp tl=300.94911 K, iteration i=5
    max leaf temp tl=300.94911 K, iteration i=6
    max leaf temp tl=300.94911 K, iteration i=7
    max leaf temp tl=300.94911 K, iteration i=8
    max leaf temp tl=300.94911 K, iteration i=9
Vegetation model:  Solving for Tl, Final residual = 0.023139113, Final relative residual = 7.688713e-05, No Iterations 9
temperature parameters: max Tl = 300.9491, min T = 293.55218, max T = 300.38587
resistances: max rs = 12833.04, max ra = 66.06124
DILUPBiCGStab:  Solving for epsilon, Initial residual = 0.0026303359, Final residual = 1.4848049e-05, No Iterations 1
DILUPBiCGStab:  Solving for k, Initial residual = 0.014375605, Final residual = 8.7584881e-05, No Iterations 1

Internal iteration number: 37
DILUPBiCGStab:  Solving for Ux, Initial residual = 0.0025717822, Final residual = 1.8119747e-05, No Iterations 2
DILUPBiCGStab:  Solving for Uy, Initial residual = 0.015805717, Final residual = 0.00010931912, No Iterations 2
DILUPBiCGStab:  Solving for Uz, Initial residual = 0.012405753, Final residual = 9.583421e-05, No Iterations 2
DILUPBiCGStab:  Solving for h, Initial residual = 0.016764774, Final residual = 9.3353892e-05, No Iterations 3
Min/max T:293.61715 300.38626
GAMG:  Solving for p_rgh, Initial residual = 0.027377005, Final residual = 0.00010367621, No Iterations 3
time step continuity errors : sum local = 2.9884078e-06, global = -7.8706344e-07, cumulative = -12.694045
DILUPBiCGStab:  Solving for w, Initial residual = 0.013917515, Final residual = 9.1084425e-05, No Iterations 3
bounding magU, min: 0 max: 6.9448116 average: 3.0556882
    max leaf temp tl=max(new_Tl) [0 0 0 1 0 0 0] 300.9491k, iteration i=0
    max leaf temp tl=300.96411 K, iteration i=1
    max leaf temp tl=300.96383 K, iteration i=2
    max leaf temp tl=300.96364 K, iteration i=3
    max leaf temp tl=300.96351 K, iteration i=4
    max leaf temp tl=300.96342 K, iteration i=5
    max leaf temp tl=300.96335 K, iteration i=6
    max leaf temp tl=300.96331 K, iteration i=7
    max leaf temp tl=300.96328 K, iteration i=8
    max leaf temp tl=300.96326 K, iteration i=9
Vegetation model:  Solving for Tl, Final residual = 0.02238989, Final relative residual = 7.4394098e-05, No Iterations 9
temperature parameters: max Tl = 300.96214, min T = 293.61715, max T = 300.38626
resistances: max rs = 12832.977, max ra = 65.773315
DILUPBiCGStab:  Solving for epsilon, Initial residual = 0.0025412828, Final residual = 1.4245508e-05, No Iterations 1
DILUPBiCGStab:  Solving for k, Initial residual = 0.01391954, Final residual = 8.4844382e-05, No Iterations 1

Internal iteration number: 38
DILUPBiCGStab:  Solving for Ux, Initial residual = 0.0024248438, Final residual = 1.3413012e-05, No Iterations 2
DILUPBiCGStab:  Solving for Uy, Initial residual = 0.015283015, Final residual = 0.00010499109, No Iterations 2
DILUPBiCGStab:  Solving for Uz, Initial residual = 0.011807721, Final residual = 8.7566125e-05, No Iterations 2
DILUPBiCGStab:  Solving for h, Initial residual = 0.016587969, Final residual = 0.00010868586, No Iterations 3
Min/max T:293.69144 300.38658
GAMG:  Solving for p_rgh, Initial residual = 0.02588731, Final residual = 9.6481945e-05, No Iterations 3
time step continuity errors : sum local = 2.7705308e-06, global = -7.5279981e-07, cumulative = -12.694046
DILUPBiCGStab:  Solving for w, Initial residual = 0.013816083, Final residual = 9.1483172e-05, No Iterations 3
bounding magU, min: 0 max: 6.9460063 average: 3.0432756
    max leaf temp tl=max(new_Tl) [0 0 0 1 0 0 0] 300.96214k, iteration i=0
    max leaf temp tl=300.97635 K, iteration i=1
    max leaf temp tl=300.97623 K, iteration i=2
    max leaf temp tl=300.97614 K, iteration i=3
    max leaf temp tl=300.97608 K, iteration i=4
    max leaf temp tl=300.97603 K, iteration i=5
    max leaf temp tl=300.976 K, iteration i=6
    max leaf temp tl=300.97598 K, iteration i=7
    max leaf temp tl=300.97597 K, iteration i=8
    max leaf temp tl=300.97596 K, iteration i=9
Vegetation model:  Solving for Tl, Final residual = 0.021224087, Final relative residual = 7.0517549e-05, No Iterations 9
temperature parameters: max Tl = 300.97544, min T = 293.69144, max T = 300.38658
resistances: max rs = 12832.917, max ra = 65.453
DILUPBiCGStab:  Solving for epsilon, Initial residual = 0.0024565015, Final residual = 1.3683025e-05, No Iterations 1
DILUPBiCGStab:  Solving for k, Initial residual = 0.013485408, Final residual = 8.2205421e-05, No Iterations 1

Internal iteration number: 39
DILUPBiCGStab:  Solving for Ux, Initial residual = 0.0022904051, Final residual = 1.1732961e-05, No Iterations 2
DILUPBiCGStab:  Solving for Uy, Initial residual = 0.014775867, Final residual = 0.00010054142, No Iterations 2
DILUPBiCGStab:  Solving for Uz, Initial residual = 0.01127309, Final residual = 7.8839866e-05, No Iterations 2
DILUPBiCGStab:  Solving for h, Initial residual = 0.016592377, Final residual = 0.00015236902, No Iterations 3
Min/max T:293.76661 300.38691
GAMG:  Solving for p_rgh, Initial residual = 0.025298039, Final residual = 9.4470168e-05, No Iterations 3
time step continuity errors : sum local = 2.7039023e-06, global = -7.3883259e-07, cumulative = -12.694047
DILUPBiCGStab:  Solving for w, Initial residual = 0.013725985, Final residual = 9.077521e-05, No Iterations 3
bounding magU, min: 0 max: 6.9474882 average: 3.031462
    max leaf temp tl=max(new_Tl) [0 0 0 1 0 0 0] 300.97544k, iteration i=0
    max leaf temp tl=300.98822 K, iteration i=1
    max leaf temp tl=300.9881 K, iteration i=2
    max leaf temp tl=300.98802 K, iteration i=3
    max leaf temp tl=300.98797 K, iteration i=4
    max leaf temp tl=300.98793 K, iteration i=5
    max leaf temp tl=300.9879 K, iteration i=6
    max leaf temp tl=300.98789 K, iteration i=7
    max leaf temp tl=300.98787 K, iteration i=8
Vegetation model:  Solving for Tl, Final residual = 0.029171889, Final relative residual = 9.6920478e-05, No Iterations 8
temperature parameters: max Tl = 300.9872, min T = 293.76661, max T = 300.38691
resistances: max rs = 12832.865, max ra = 65.107592
DILUPBiCGStab:  Solving for epsilon, Initial residual = 0.0023759473, Final residual = 1.3164633e-05, No Iterations 1
DILUPBiCGStab:  Solving for k, Initial residual = 0.013072278, Final residual = 7.9744138e-05, No Iterations 1

Internal iteration number: 40
DILUPBiCGStab:  Solving for Ux, Initial residual = 0.0021653072, Final residual = 1.0416717e-05, No Iterations 2
DILUPBiCGStab:  Solving for Uy, Initial residual = 0.014293676, Final residual = 9.638461e-05, No Iterations 2
DILUPBiCGStab:  Solving for Uz, Initial residual = 0.010777645, Final residual = 7.9864848e-05, No Iterations 2
DILUPBiCGStab:  Solving for h, Initial residual = 0.016572433, Final residual = 9.4981585e-05, No Iterations 3
Min/max T:293.86092 300.38724
GAMG:  Solving for p_rgh, Initial residual = 0.024218257, Final residual = 8.8572929e-05, No Iterations 3
time step continuity errors : sum local = 2.5294148e-06, global = -6.9265758e-07, cumulative = -12.694047
DILUPBiCGStab:  Solving for w, Initial residual = 0.013646177, Final residual = 9.1204195e-05, No Iterations 3
bounding magU, min: 0 max: 6.9491818 average: 3.0202155
[...]
DICPCG:  Solving for pc, Initial residual = 3.7306665e-05, Final residual = 3.1892842e-12, No Iterations 2
DICPCG:  Solving for Ts, Initial residual = 1.3886724e-05, Final residual = 3.7446182e-11, No Iterations 2
Total internal iterations: 2
Time step continuity errors: sum local = 7.3124589e-07, global = -1.4316786e-08, cumulative = -4.5472698e-06
Increasing time step slowly...deltaT = 100
timeToOutput: 2475.3471

Time = 15524.6528816, deltaT = 100
solidInternalTime: 1124.6529
DICPCG:  Solving for pc, Initial residual = 0.0025132172, Final residual = 2.3638765e-12, No Iterations 3
DICPCG:  Solving for Ts, Initial residual = 0.0029454497, Final residual = 2.3759171e-13, No Iterations 5
maxChangews: 0.00072231194, maxChangeTs: 0.040246347
DICPCG:  Solving for pc, Initial residual = 3.6388259e-05, Final residual = 3.1046536e-12, No Iterations 2
DICPCG:  Solving for Ts, Initial residual = 1.4294225e-05, Final residual = 3.8912742e-11, No Iterations 2
Total internal iterations: 2
Time step continuity errors: sum local = 7.3328468e-07, global = -1.4932883e-08, cumulative = -4.5622026e-06
Increasing time step slowly...deltaT = 100
Updating T boundary fields...
Updating T boundary fields...
Updating long-wave radiation heat transfer for region: vegetation
Constant cloud cover of 0 is being used...

LU Back substitute C matrix..
timeToOutput: 2375.3471

Time = 15624.6528816, deltaT = 100
solidInternalTime: 1224.6529
DICPCG:  Solving for pc, Initial residual = 0.0025025722, Final residual = 2.342842e-12, No Iterations 3
DICPCG:  Solving for Ts, Initial residual = 0.0029112855, Final residual = 2.4615089e-13, No Iterations 5
maxChangews: 0.0007184248, maxChangeTs: 0.040034907
DICPCG:  Solving for pc, Initial residual = 3.7450034e-05, Final residual = 3.3641733e-12, No Iterations 2
DICPCG:  Solving for Ts, Initial residual = 1.1346544e-05, Final residual = 3.1116727e-11, No Iterations 2
Total internal iterations: 2
Time step continuity errors: sum local = 7.1097378e-07, global = -1.1816805e-08, cumulative = -4.5740195e-06
Increasing time step slowly...deltaT = 100
timeToOutput: 2275.3471

Time = 15724.6528816, deltaT = 100
solidInternalTime: 1324.6529
DICPCG:  Solving for pc, Initial residual = 0.0024771427, Final residual = 2.3175324e-12, No Iterations 3
DICPCG:  Solving for Ts, Initial residual = 0.0029000294, Final residual = 2.3876137e-13, No Iterations 5
maxChangews: 0.00071456589, maxChangeTs: 0.039822855
DICPCG:  Solving for pc, Initial residual = 3.0580561e-05, Final residual = 2.441439e-12, No Iterations 2
DICPCG:  Solving for Ts, Initial residual = 1.3664025e-05, Final residual = 3.7924776e-11, No Iterations 2
Total internal iterations: 2
Time step continuity errors: sum local = 7.2684369e-07, global = -1.4540301e-08, cumulative = -4.5885598e-06
Increasing time step slowly...deltaT = 100
timeToOutput: 2175.3471

Time = 15824.6528816, deltaT = 100
solidInternalTime: 1424.6529
DICPCG:  Solving for pc, Initial residual = 0.0024669731, Final residual = 2.3122034e-12, No Iterations 3
DICPCG:  Solving for Ts, Initial residual = 0.0028867887, Final residual = 2.3585671e-13, No Iterations 5
maxChangews: 0.00071087264, maxChangeTs: 0.039610333
DICPCG:  Solving for pc, Initial residual = 3.2997622e-05, Final residual = 2.7205562e-12, No Iterations 2
DICPCG:  Solving for Ts, Initial residual = 1.433806e-05, Final residual = 4.0161916e-11, No Iterations 2
Total internal iterations: 2
Time step continuity errors: sum local = 7.3089568e-07, global = -1.5418316e-08, cumulative = -4.6039781e-06
Increasing time step slowly...deltaT = 100
timeToOutput: 2075.3471

Time = 15924.6528816, deltaT = 100
solidInternalTime: 1524.6529
DICPCG:  Solving for pc, Initial residual = 0.0024563029, Final residual = 2.2944871e-12, No Iterations 3
DICPCG:  Solving for Ts, Initial residual = 0.0028729434, Final residual = 2.3423247e-13, No Iterations 5
maxChangews: 0.00070761713, maxChangeTs: 0.03939747
DICPCG:  Solving for pc, Initial residual = 3.3224276e-05, Final residual = 2.6785222e-12, No Iterations 2
DICPCG:  Solving for Ts, Initial residual = 1.4789939e-05, Final residual = 4.1758562e-11, No Iterations 2
Total internal iterations: 2
Time step continuity errors: sum local = 7.3338433e-07, global = -1.6039714e-08, cumulative = -4.6200178e-06
Increasing time step slowly...deltaT = 100
timeToOutput: 1975.3471

Time = 16024.6528816, deltaT = 100
solidInternalTime: 1624.6529
DICPCG:  Solving for pc, Initial residual = 0.0024452821, Final residual = 2.2716227e-12, No Iterations 3
DICPCG:  Solving for Ts, Initial residual = 0.0028586857, Final residual = 2.3306813e-13, No Iterations 5
maxChangews: 0.00070437225, maxChangeTs: 0.03918439
DICPCG:  Solving for pc, Initial residual = 3.2981561e-05, Final residual = 2.6083318e-12, No Iterations 2
DICPCG:  Solving for Ts, Initial residual = 1.5132712e-05, Final residual = 4.3030925e-11, No Iterations 2
Total internal iterations: 2
Time step continuity errors: sum local = 7.3511394e-07, global = -1.6530827e-08, cumulative = -4.6365486e-06
Increasing time step slowly...deltaT = 100
timeToOutput: 1875.3471

Time = 16124.6528816, deltaT = 100
solidInternalTime: 1724.6529
DICPCG:  Solving for pc, Initial residual = 0.0024339818, Final residual = 2.2477988e-12, No Iterations 3
DICPCG:  Solving for Ts, Initial residual = 0.0028441062, Final residual = 2.3208984e-13, No Iterations 5
maxChangews: 0.00070115131, maxChangeTs: 0.038971227
DICPCG:  Solving for pc, Initial residual = 3.2575211e-05, Final residual = 2.527363e-12, No Iterations 2
DICPCG:  Solving for Ts, Initial residual = 1.540829e-05, Final residual = 4.4096726e-11, No Iterations 2
Total internal iterations: 2
Time step continuity errors: sum local = 7.3637913e-07, global = -1.6939097e-08, cumulative = -4.6534877e-06
Increasing time step slowly...deltaT = 100
Updating T boundary fields...
Updating T boundary fields...
Updating long-wave radiation heat transfer for region: vegetation
Constant cloud cover of 0 is being used...

LU Back substitute C matrix..
timeToOutput: 1775.3471

Time = 16224.6528816, deltaT = 100
solidInternalTime: 1824.6529
DICPCG:  Solving for pc, Initial residual = 0.0024224496, Final residual = 2.2246943e-12, No Iterations 3
DICPCG:  Solving for Ts, Initial residual = 0.0028075631, Final residual = 2.4146538e-13, No Iterations 5
maxChangews: 0.00069797058, maxChangeTs: 0.038758107
DICPCG:  Solving for pc, Initial residual = 3.3659445e-05, Final residual = 2.0250221e-12, No Iterations 2
DICPCG:  Solving for Ts, Initial residual = 1.2039834e-05, Final residual = 3.4546786e-11, No Iterations 2
Total internal iterations: 2
Time step continuity errors: sum local = 7.1074922e-07, global = -1.3155225e-08, cumulative = -4.6666429e-06
Increasing time step slowly...deltaT = 100
timeToOutput: 1675.3471

Time = 16324.6528816, deltaT = 100
solidInternalTime: 1924.6529
DICPCG:  Solving for pc, Initial residual = 0.0023951972, Final residual = 2.2065315e-12, No Iterations 3
DICPCG:  Solving for Ts, Initial residual = 0.0027956421, Final residual = 2.3318251e-13, No Iterations 5
maxChangews: 0.00069481752, maxChangeTs: 0.03854514
DICPCG:  Solving for pc, Initial residual = 2.6837674e-05, Final residual = 1.8087122e-12, No Iterations 2
DICPCG:  Solving for Ts, Initial residual = 1.4408049e-05, Final residual = 4.1714809e-11, No Iterations 2
Total internal iterations: 2
Time step continuity errors: sum local = 7.2738607e-07, global = -1.5969026e-08, cumulative = -4.682612e-06
Increasing time step slowly...deltaT = 100
timeToOutput: 1575.3471

Time = 16424.6528816, deltaT = 100
solidInternalTime: 2024.6529
DICPCG:  Solving for pc, Initial residual = 0.0023843256, Final residual = 2.2050042e-12, No Iterations 3
DICPCG:  Solving for Ts, Initial residual = 0.0027816805, Final residual = 2.2981092e-13, No Iterations 5
maxChangews: 0.00069167167, maxChangeTs: 0.038332404
DICPCG:  Solving for pc, Initial residual = 2.9760656e-05, Final residual = 1.8940143e-12, No Iterations 2
DICPCG:  Solving for Ts, Initial residual = 1.4998536e-05, Final residual = 4.3660433e-11, No Iterations 2
Total internal iterations: 2
Time step continuity errors: sum local = 7.3100253e-07, global = -1.6722599e-08, cumulative = -4.6993346e-06
Increasing time step slowly...deltaT = 100
timeToOutput: 1475.3471

Time = 16524.6528816, deltaT = 100
solidInternalTime: 2124.6529
DICPCG:  Solving for pc, Initial residual = 0.0023730025, Final residual = 2.1877143e-12, No Iterations 3
DICPCG:  Solving for Ts, Initial residual = 0.0027671729, Final residual = 2.2786743e-13, No Iterations 5
maxChangews: 0.00068852331, maxChangeTs: 0.038119966
DICPCG:  Solving for pc, Initial residual = 3.0291324e-05, Final residual = 1.872617e-12, No Iterations 2
DICPCG:  Solving for Ts, Initial residual = 1.5359479e-05, Final residual = 4.4918502e-11, No Iterations 2
Total internal iterations: 2
Time step continuity errors: sum local = 7.329574e-07, global = -1.7207175e-08, cumulative = -4.7165417e-06
Increasing time step slowly...deltaT = 100
timeToOutput: 1375.3471

Time = 16624.6528816, deltaT = 100
solidInternalTime: 2224.6529
DICPCG:  Solving for pc, Initial residual = 0.0023613952, Final residual = 2.1643686e-12, No Iterations 3
DICPCG:  Solving for Ts, Initial residual = 0.0027523191, Final residual = 2.2645004e-13, No Iterations 5
maxChangews: 0.0006853771, maxChangeTs: 0.03790789
DICPCG:  Solving for pc, Initial residual = 3.0269364e-05, Final residual = 1.8444206e-12, No Iterations 2
DICPCG:  Solving for Ts, Initial residual = 1.5613331e-05, Final residual = 4.5851424e-11, No Iterations 2
Total internal iterations: 2
Time step continuity errors: sum local = 7.3414174e-07, global = -1.7564177e-08, cumulative = -4.7341059e-06
Increasing time step slowly...deltaT = 100
timeToOutput: 1275.3471

Time = 16724.6528816, deltaT = 100
solidInternalTime: 2324.6529
DICPCG:  Solving for pc, Initial residual = 0.0023495808, Final residual = 2.1402844e-12, No Iterations 3
DICPCG:  Solving for Ts, Initial residual = 0.0027372125, Final residual = 2.2525577e-13, No Iterations 5
maxChangews: 0.00068224697, maxChangeTs: 0.037696253
DICPCG:  Solving for pc, Initial residual = 3.0015078e-05, Final residual = 1.7914894e-12, No Iterations 2
DICPCG:  Solving for Ts, Initial residual = 1.5805071e-05, Final residual = 4.6589151e-11, No Iterations 2
Total internal iterations: 2
Time step continuity errors: sum local = 7.3488271e-07, global = -1.7845581e-08, cumulative = -4.7519515e-06
Increasing time step slowly...deltaT = 100
Updating T boundary fields...
Updating T boundary fields...
Updating long-wave radiation heat transfer for region: vegetation
Constant cloud cover of 0 is being used...

LU Back substitute C matrix..
timeToOutput: 1175.3471

Time = 16824.6528816, deltaT = 100
solidInternalTime: 2424.6529
DICPCG:  Solving for pc, Initial residual = 0.002337608, Final residual = 2.1174356e-12, No Iterations 3
DICPCG:  Solving for Ts, Initial residual = 0.002721911, Final residual = 2.2416243e-13, No Iterations 5
maxChangews: 0.00067914972, maxChangeTs: 0.037485149
DICPCG:  Solving for pc, Initial residual = 2.9680069e-05, Final residual = 1.7135521e-12, No Iterations 2
DICPCG:  Solving for Ts, Initial residual = 1.5955202e-05, Final residual = 4.7192029e-11, No Iterations 2
Total internal iterations: 2
Time step continuity errors: sum local = 7.3532945e-07, global = -1.8075219e-08, cumulative = -4.7700267e-06
Increasing time step slowly...deltaT = 100
timeToOutput: 1075.3471

Time = 16924.6528816, deltaT = 100
solidInternalTime: 2524.6529
DICPCG:  Solving for pc, Initial residual = 0.0023255091, Final residual = 2.0962598e-12, No Iterations 3
DICPCG:  Solving for Ts, Initial residual = 0.0026837957, Final residual = 2.3417736e-13, No Iterations 5
maxChangews: 0.00067610042, maxChangeTs: 0.037274669
DICPCG:  Solving for pc, Initial residual = 3.1155766e-05, Final residual = 3.0732188e-13, No Iterations 2
DICPCG:  Solving for Ts, Initial residual = 1.2272547e-05, Final residual = 3.620073e-11, No Iterations 2
Total internal iterations: 2
Time step continuity errors: sum local = 7.0712778e-07, global = -1.3780216e-08, cumulative = -4.7838069e-06
Increasing time step slowly...deltaT = 100
timeToOutput: 975.34712

Time = 17024.6528816, deltaT = 100
solidInternalTime: 2624.6529
DICPCG:  Solving for pc, Initial residual = 0.0022971223, Final residual = 2.0871921e-12, No Iterations 3
DICPCG:  Solving for Ts, Initial residual = 0.0026715166, Final residual = 2.2528698e-13, No Iterations 5
maxChangews: 0.00067308379, maxChangeTs: 0.03706489
DICPCG:  Solving for pc, Initial residual = 2.4050631e-05, Final residual = 4.6848509e-13, No Iterations 2
DICPCG:  Solving for Ts, Initial residual = 1.4669383e-05, Final residual = 4.3645991e-11, No Iterations 2
Total internal iterations: 2
Time step continuity errors: sum local = 7.2429393e-07, global = -1.6672079e-08, cumulative = -4.800479e-06
Increasing time step slowly...deltaT = 100
timeToOutput: 875.34712

Time = 17124.6528816, deltaT = 100
solidInternalTime: 2724.6529
DICPCG:  Solving for pc, Initial residual = 0.0022859091, Final residual = 2.0907989e-12, No Iterations 3
DICPCG:  Solving for Ts, Initial residual = 0.002657194, Final residual = 2.2157636e-13, No Iterations 5
maxChangews: 0.00067007634, maxChangeTs: 0.036855858
DICPCG:  Solving for pc, Initial residual = 2.7307196e-05, Final residual = 5.852721e-13, No Iterations 2
DICPCG:  Solving for Ts, Initial residual = 1.5197885e-05, Final residual = 4.5380245e-11, No Iterations 2
Total internal iterations: 2
Time step continuity errors: sum local = 7.2757834e-07, global = -1.7341649e-08, cumulative = -4.8178207e-06
Increasing time step slowly...deltaT = 100
timeToOutput: 775.34712

Time = 17224.6528816, deltaT = 100
solidInternalTime: 2824.6529
DICPCG:  Solving for pc, Initial residual = 0.0022742923, Final residual = 2.0753611e-12, No Iterations 3
DICPCG:  Solving for Ts, Initial residual = 0.0026423871, Final residual = 2.1939798e-13, No Iterations 5
maxChangews: 0.00066706536, maxChangeTs: 0.036647604
DICPCG:  Solving for pc, Initial residual = 2.8033049e-05, Final residual = 7.5856945e-13, No Iterations 2
DICPCG:  Solving for Ts, Initial residual = 1.5492587e-05, Final residual = 4.6393706e-11, No Iterations 2
Total internal iterations: 2
Time step continuity errors: sum local = 7.2914606e-07, global = -1.7732993e-08, cumulative = -4.8355536e-06
Increasing time step slowly...deltaT = 100
timeToOutput: 675.34712

Time = 17324.6528816, deltaT = 100
solidInternalTime: 2924.6529
DICPCG:  Solving for pc, Initial residual = 0.002262446, Final residual = 2.0526708e-12, No Iterations 3
DICPCG:  Solving for Ts, Initial residual = 0.0026273016, Final residual = 2.177948e-13, No Iterations 5
maxChangews: 0.00066405297, maxChangeTs: 0.036440156
DICPCG:  Solving for pc, Initial residual = 2.8131813e-05, Final residual = 8.6341262e-13, No Iterations 2
DICPCG:  Solving for Ts, Initial residual = 1.5682036e-05, Final residual = 4.7078594e-11, No Iterations 2
Total internal iterations: 2
Time step continuity errors: sum local = 7.2994502e-07, global = -1.7998135e-08, cumulative = -4.8535518e-06
Increasing time step slowly...deltaT = 100
Updating T boundary fields...
Updating T boundary fields...
Updating long-wave radiation heat transfer for region: vegetation
Constant cloud cover of 0 is being used...

LU Back substitute C matrix..
timeToOutput: 575.34712

Time = 17424.6528816, deltaT = 100
solidInternalTime: 3024.6529
DICPCG:  Solving for pc, Initial residual = 0.0022504427, Final residual = 2.0290645e-12, No Iterations 3
DICPCG:  Solving for Ts, Initial residual = 0.0026120348, Final residual = 2.1644368e-13, No Iterations 5
maxChangews: 0.00066105111, maxChangeTs: 0.036233552
DICPCG:  Solving for pc, Initial residual = 2.7980152e-05, Final residual = 8.9307797e-13, No Iterations 2
DICPCG:  Solving for Ts, Initial residual = 1.5812778e-05, Final residual = 4.7577163e-11, No Iterations 2
Total internal iterations: 2
Time step continuity errors: sum local = 7.3032011e-07, global = -1.8192159e-08, cumulative = -4.8717439e-06
Increasing time step slowly...deltaT = 100
timeToOutput: 475.34712

Time = 17524.6528816, deltaT = 100
solidInternalTime: 3124.6529
DICPCG:  Solving for pc, Initial residual = 0.0022383238, Final residual = 2.00685e-12, No Iterations 3
DICPCG:  Solving for Ts, Initial residual = 0.0025736545, Final residual = 2.2654632e-13, No Iterations 5
maxChangews: 0.00065807521, maxChangeTs: 0.036027824
DICPCG:  Solving for pc, Initial residual = 3.0123374e-05, Final residual = 1.0025135e-14, No Iterations 2
DICPCG:  Solving for Ts, Initial residual = 1.2021803e-05, Final residual = 3.5946475e-11, No Iterations 2
Total internal iterations: 2
Time step continuity errors: sum local = 7.0119459e-07, global = -1.3691835e-08, cumulative = -4.8854358e-06
Increasing time step slowly...deltaT = 100
timeToOutput: 375.34712

Time = 17624.6528816, deltaT = 100
solidInternalTime: 3224.6529
DICPCG:  Solving for pc, Initial residual = 0.0022096838, Final residual = 2.0002151e-12, No Iterations 3
DICPCG:  Solving for Ts, Initial residual = 0.0025615469, Final residual = 2.1738592e-13, No Iterations 5
maxChangews: 0.00065511359, maxChangeTs: 0.035822996
DICPCG:  Solving for pc, Initial residual = 2.2677101e-05, Final residual = 7.3282882e-13, No Iterations 2
DICPCG:  Solving for Ts, Initial residual = 1.4441754e-05, Final residual = 4.3577141e-11, No Iterations 2
Total internal iterations: 2
Time step continuity errors: sum local = 7.1869807e-07, global = -1.6638515e-08, cumulative = -4.9020743e-06
Increasing time step slowly...deltaT = 100
timeToOutput: 275.34712

Time = 17724.6528816, deltaT = 100
solidInternalTime: 3324.6529
DICPCG:  Solving for pc, Initial residual = 0.0021985084, Final residual = 2.0048809e-12, No Iterations 3
DICPCG:  Solving for Ts, Initial residual = 0.002547397, Final residual = 2.1350439e-13, No Iterations 5
maxChangews: 0.00065214741, maxChangeTs: 0.035619061
DICPCG:  Solving for pc, Initial residual = 2.5943365e-05, Final residual = 4.896634e-13, No Iterations 2
DICPCG:  Solving for Ts, Initial residual = 1.4950551e-05, Final residual = 4.5238048e-11, No Iterations 2
Total internal iterations: 2
Time step continuity errors: sum local = 7.2192265e-07, global = -1.7282232e-08, cumulative = -4.9193565e-06
Increasing time step slowly...deltaT = 100
timeToOutput: 175.34712

Time = 17824.6528816, deltaT = 100
solidInternalTime: 3424.6529
DICPCG:  Solving for pc, Initial residual = 0.0021869474, Final residual = 1.9893196e-12, No Iterations 3
DICPCG:  Solving for Ts, Initial residual = 0.0025327916, Final residual = 2.1120787e-13, No Iterations 5
maxChangews: 0.00064916831, maxChangeTs: 0.035416011
DICPCG:  Solving for pc, Initial residual = 2.6692679e-05, Final residual = 1.2840036e-13, No Iterations 2
DICPCG:  Solving for Ts, Initial residual = 1.5221645e-05, Final residual = 4.6152388e-11, No Iterations 2
Total internal iterations: 2
Time step continuity errors: sum local = 7.2338425e-07, global = -1.7639408e-08, cumulative = -4.9369959e-06
Increasing time step slowly...deltaT = 75.347118
timeToOutput: 75.347118

Time = 17924.6528816, deltaT = 75.347118
solidInternalTime: 3524.6529
DICPCG:  Solving for pc, Initial residual = 0.0016390082, Final residual = 5.6826139e-11, No Iterations 2
DICPCG:  Solving for Ts, Initial residual = 0.0018989347, Final residual = 3.9124052e-11, No Iterations 4
maxChangews: 0.00048688756, maxChangeTs: 0.026563811
DICPCG:  Solving for pc, Initial residual = 1.4929333e-05, Final residual = 4.4764087e-11, No Iterations 1
DICPCG:  Solving for Ts, Initial residual = 8.5848782e-06, Final residual = 1.3508705e-11, No Iterations 2
Total internal iterations: 2
Time step continuity errors: sum local = 5.2052299e-07, global = -8.8014241e-09, cumulative = -4.9457974e-06
Increasing time step slowly...deltaT = 0
timeToOutput: 0
ExecutionTime = 1502.031 s  ClockTime = 1502 s

End

Finalising parallel run
