/*---------------------------------------------------------------------------*\
  =========                 |
  \\      /  F ield         | OpenFOAM: The Open Source CFD Toolbox
   \\    /   O peration     | Website:  https://openfoam.org
    \\  /    A nd           | Version:  8
     \\/     M anipulation  |
\*---------------------------------------------------------------------------*/
/*   Windows 32 and 64 bit porting by blueCAPE: http://www.bluecape.com.pt   *\
|  Based on Windows porting (2.0.x v4) by Symscape: http://www.symscape.com   |
\*---------------------------------------------------------------------------*/
Build  : 8-53cd1468e263
Exec   : faceAgglomerate -region vegetation -parallel
Date   : Nov 13 2024
Time   : 09:43:43
Host   : "FOAM2"
PID    : 46972
I/O    : uncollated
Case   : C:/MetaFoam_Cases/CRVS_03
nProcs : 20
Slaves : 
19
(
"FOAM2.43708"
"FOAM2.38824"
"FOAM2.34608"
"FOAM2.36736"
"FOAM2.36648"
"FOAM2.22192"
"FOAM2.39260"
"FOAM2.23092"
"FOAM2.38656"
"FOAM2.37968"
"FOAM2.27268"
"FOAM2.40456"
"FOAM2.27624"
"FOAM2.46860"
"FOAM2.38192"
"FOAM2.25560"
"FOAM2.37956"
"FOAM2.19672"
"FOAM2.13000"
)

Pstream initialized with:
    floatTransfer      : 0
    nProcsSimpleSum    : 0
    commsType          : nonBlocking
    polling iterations : 0
SigFpe : Enabling floating point exception trapping (FOAM_SIGFPE).
fileModificationChecking : Monitoring run-time modified files using timeStampMaster (fileModificationSkew 10)
allowSystemOperations : Allowing user-supplied system call operations

// * * * * * * * * * * * * * * * * * * * * * * * * * * * * * * * * * * * * * //
Create time

Create mesh vegetation for time = 0


Agglomerating patch : left

Agglomerating patch : right

Agglomerating patch : back

Agglomerating patch : front

Agglomerating patch : top

Agglomerating patch : bottom

Agglomerating patch : air_to_vegetation

Writing facesAgglomeration
End

Finalising parallel run
