/*---------------------------------------------------------------------------*\
  =========                 |
  \\      /  F ield         | OpenFOAM: The Open Source CFD Toolbox
   \\    /   O peration     | Website:  https://openfoam.org
    \\  /    A nd           | Version:  8
     \\/     M anipulation  |
\*---------------------------------------------------------------------------*/
/*   Windows 32 and 64 bit porting by blueCAPE: http://www.bluecape.com.pt   *\
|  Based on Windows porting (2.0.x v4) by Symscape: http://www.symscape.com   |
\*---------------------------------------------------------------------------*/
Build  : 8-53cd1468e263
Exec   : blockMesh
Date   : Nov 13 2024
Time   : 09:40:37
Host   : "FOAM2"
PID    : 40352
I/O    : uncollated
Case   : C:/MetaFoam_Cases/CRVS_03
nProcs : 1
SigFpe : Enabling floating point exception trapping (FOAM_SIGFPE).
fileModificationChecking : Monitoring run-time modified files using timeStampMaster (fileModificationSkew 10)
allowSystemOperations : Allowing user-supplied system call operations

// * * * * * * * * * * * * * * * * * * * * * * * * * * * * * * * * * * * * * //
Create time

Creating block mesh from
    "system/blockMeshDict"
Creating block edges
No non-planar block faces defined
Creating topology blocks
Creating topology patches

Creating block mesh topology

Check topology

	Basic statistics
		Number of internal faces : 0
		Number of boundary faces : 6
		Number of defined boundary faces : 6
		Number of undefined boundary faces : 0
	Checking patch -> block consistency

Creating block offsets
Creating merge list .

Creating polyMesh from blockMesh
Creating patches
Creating cells
Creating points with scale 1
    Block 0 cell size :
        i : 9.7436025
        j : 9.3669308 .. 9.3669308
        k : 12.048357

Writing polyMesh
----------------
Mesh Information
----------------
  boundingBox: (95.584821 161.27946 -0.15131091) (133.05254 219.74108 11.897046)
  nPoints: 70
  nCells: 24
  nFaces: 106
  nInternalFaces: 38
----------------
Patches
----------------
  patch 0 (start: 38 size: 4) name: left
  patch 1 (start: 42 size: 4) name: right
  patch 2 (start: 46 size: 6) name: back
  patch 3 (start: 52 size: 6) name: front
  patch 4 (start: 58 size: 24) name: bottom
  patch 5 (start: 82 size: 24) name: top

End

/*---------------------------------------------------------------------------*\
  =========                 |
  \\      /  F ield         | OpenFOAM: The Open Source CFD Toolbox
   \\    /   O peration     | Website:  https://openfoam.org
    \\  /    A nd           | Version:  8
     \\/     M anipulation  |
\*---------------------------------------------------------------------------*/
/*   Windows 32 and 64 bit porting by blueCAPE: http://www.bluecape.com.pt   *\
|  Based on Windows porting (2.0.x v4) by Symscape: http://www.symscape.com   |
\*---------------------------------------------------------------------------*/
Build  : 8-53cd1468e263
Exec   : surfaceFeatures
Date   : Nov 13 2024
Time   : 09:40:38
Host   : "FOAM2"
PID    : 17640
I/O    : uncollated
Case   : C:/MetaFoam_Cases/CRVS_03
nProcs : 1
SigFpe : Enabling floating point exception trapping (FOAM_SIGFPE).
fileModificationChecking : Monitoring run-time modified files using timeStampMaster (fileModificationSkew 10)
allowSystemOperations : Allowing user-supplied system call operations

// * * * * * * * * * * * * * * * * * * * * * * * * * * * * * * * * * * * * * //
Create time

Reading surfaceFeaturesDict

Surface            : "tower.stl"


Feature line extraction is only valid on closed manifold surfaces.
Statistics:
Triangles    : 34976
Vertices     : 17498
Bounding Box : (105 165.97946 -4.2295788e-11) (121 215.04108 8.4970465)


Constructing feature set from included angle 150
Selecting edges purely based on geometric tests: no

Initial feature set:
    feature points : 40
    feature edges  : 1448
    of which
        region edges   : 0
        external edges : 1448
        internal edges : 0


Final feature set:
points      : 1428
edges       : 1448
boundingBox : (105 165.97946 -4.2295788e-11) (121 215.04108 8.4970465)
point classification :
    convex feature points          :       40
    concave feature points         :        0
    mixed feature points           :        0
    other (non-feature) points     :     1388
edge classification :
    external (convex angle) edges  :     1448
    internal (concave angle) edges :        0
    flat region edges              :        0
    open edges                     :        0
    multiply connected edges       :        0

Writing extendedFeatureEdgeMesh to "constant/extendedFeatureEdgeMesh/tower.extendedFeatureEdgeMesh"

Writing extendedEdgeMesh components to "C:/MetaFoam_Cases/CRVS_03/constant/extendedFeatureEdgeMesh/tower"

Writing featureEdgeMesh to "constant/triSurface/tower.eMesh"

ExecutionTime = 0.25 s  ClockTime = 0 s

End

/*---------------------------------------------------------------------------*\
  =========                 |
  \\      /  F ield         | OpenFOAM: The Open Source CFD Toolbox
   \\    /   O peration     | Website:  https://openfoam.org
    \\  /    A nd           | Version:  8
     \\/     M anipulation  |
\*---------------------------------------------------------------------------*/
/*   Windows 32 and 64 bit porting by blueCAPE: http://www.bluecape.com.pt   *\
|  Based on Windows porting (2.0.x v4) by Symscape: http://www.symscape.com   |
\*---------------------------------------------------------------------------*/
Build  : 8-53cd1468e263
Exec   : snappyHexMesh -overwrite
Date   : Nov 13 2024
Time   : 09:40:38
Host   : "FOAM2"
PID    : 27672
I/O    : uncollated
Case   : C:/MetaFoam_Cases/CRVS_03
nProcs : 1
SigFpe : Enabling floating point exception trapping (FOAM_SIGFPE).
fileModificationChecking : Monitoring run-time modified files using timeStampMaster (fileModificationSkew 10)
allowSystemOperations : Allowing user-supplied system call operations

// * * * * * * * * * * * * * * * * * * * * * * * * * * * * * * * * * * * * * //
Create time

Create mesh for time = 0

Read mesh in = 0.016 s

Overall mesh bounding box  : (95.584821 161.27946 -0.15131091) (133.05254 219.74108 11.897046)
Relative tolerance         : 1e-06
Absolute matching distance : 7.0475199e-05

Reading refinement surfaces.
Read refinement surfaces in = 0.14 s

Reading refinement shells.
Refinement level 2 for all cells inside refinementBox
Refinement level according to distance to vegetation
    level 5 for all cells within 1 metre.
    level 4 for all cells within 2 metre.
Refinement level according to distance to tower
    level 4 for all cells within 1 metre.
    level 2 for all cells within 3 metre.
Read refinement shells in = 0 s

Setting refinement level of surface to be consistent with shells.
Checked shell refinement in = 0 s

Reading features.
Read edgeMesh tower.eMesh
    points      : 1428
    edges       : 1448
    boundingBox : (105 165.97946 -4.2295788e-11) (121 215.04108 8.4970465)

Refinement level according to distance to "tower.eMesh" (1428 points, 1448 edges).
    level 4 for all cells within 0 metre.
Read features in = 0 s


Determining initial surface intersections
-----------------------------------------

Edge intersection testing:
    Number of edges             : 106
    Number of edges to retest   : 106
    Number of intersected edges : 24
Calculated surface intersections in = 0.047 s

Initial mesh : cells:24  faces:106  points:70
Cells per refinement level:
    0	24

Adding patches for surface regions
----------------------------------

Patch Type                Region                        
----- ----                ------                        
tower:

6     wall                tower                         

Added patches in = 0 s

Selecting decompositionMethod none
Layer thickness specified as first layer and expansion ratio.

Refinement phase
----------------

Found point (112.91868 190.51027 9.3970465) in cell 9 on processor 0

Feature refinement iteration 0
------------------------------

Marked for refinement due to explicit features             : 12 cells.
Determined cells to refine in = 0 s
Selected for feature refinement : 12 cells (out of 24)
Edge intersection testing:
    Number of edges             : 418
    Number of edges to retest   : 418
    Number of intersected edges : 55
Refined mesh in = 0 s
After refinement feature refinement iteration 0 : cells:108  faces:418  points:223
Cells per refinement level:
    0	12
    1	96

Feature refinement iteration 1
------------------------------

Marked for refinement due to explicit features             : 64 cells.
Determined cells to refine in = 0 s
Selected for feature refinement : 76 cells (out of 108)
Edge intersection testing:
    Number of edges             : 2272
    Number of edges to retest   : 2272
    Number of intersected edges : 294
Refined mesh in = 0.016 s
After refinement feature refinement iteration 1 : cells:640  faces:2272  points:1041
Cells per refinement level:
    0	0
    1	128
    2	512

Feature refinement iteration 2
------------------------------

Marked for refinement due to explicit features             : 144 cells.
Determined cells to refine in = 0 s
Selected for feature refinement : 176 cells (out of 640)
Edge intersection testing:
    Number of edges             : 6790
    Number of edges to retest   : 6390
    Number of intersected edges : 1050
Refined mesh in = 0.015 s
After refinement feature refinement iteration 2 : cells:1872  faces:6790  points:3184
Cells per refinement level:
    0	0
    1	96
    2	624
    3	1152

Feature refinement iteration 3
------------------------------

Marked for refinement due to explicit features             : 332 cells.
Determined cells to refine in = 0.016 s
Selected for feature refinement : 590 cells (out of 1872)
Edge intersection testing:
    Number of edges             : 21634
    Number of edges to retest   : 21005
    Number of intersected edges : 2791
Refined mesh in = 0.031 s
After refinement feature refinement iteration 3 : cells:6002  faces:21634  points:10015
Cells per refinement level:
    0	0
    1	60
    2	690
    3	2596
    4	2656

Feature refinement iteration 4
------------------------------

Marked for refinement due to explicit features             : 0 cells.
Determined cells to refine in = 0.032 s
Selected for feature refinement : 0 cells (out of 6002)
Stopping refining since too few cells selected.


Surface refinement iteration 0
------------------------------

Marked for refinement due to surface intersection          : 98 cells.
Marked for refinement due to curvature/regions             : 1114 cells.
Determined cells to refine in = 0.015 s
Selected for refinement : 1540 cells (out of 6002)
Edge intersection testing:
    Number of edges             : 58954
    Number of edges to retest   : 53384
    Number of intersected edges : 7698
Refined mesh in = 0.11 s
After refinement surface refinement iteration 0 : cells:16782  faces:58954  points:26140
Cells per refinement level:
    0	0
    1	56
    2	601
    3	2962
    4	6659
    5	6504

Surface refinement iteration 1
------------------------------

Marked for refinement due to surface intersection          : 0 cells.
Marked for refinement due to curvature/regions             : 367 cells.
Determined cells to refine in = 0.015 s
Selected for refinement : 421 cells (out of 16782)
Edge intersection testing:
    Number of edges             : 69283
    Number of edges to retest   : 19982
    Number of intersected edges : 9311
Refined mesh in = 0.11 s
After refinement surface refinement iteration 1 : cells:19729  faces:69283  points:30668
Cells per refinement level:
    0	0
    1	56
    2	597
    3	2885
    4	7223
    5	8968

Surface refinement iteration 2
------------------------------

Marked for refinement due to surface intersection          : 0 cells.
Marked for refinement due to curvature/regions             : 32 cells.
Determined cells to refine in = 0.031 s
Selected for refinement : 46 cells (out of 19729)
Edge intersection testing:
    Number of edges             : 70339
    Number of edges to retest   : 3008
    Number of intersected edges : 9403
Refined mesh in = 0.078 s
After refinement surface refinement iteration 2 : cells:20051  faces:70339  points:31084
Cells per refinement level:
    0	0
    1	56
    2	597
    3	2871
    4	7303
    5	9224

Surface refinement iteration 3
------------------------------

Marked for refinement due to surface intersection          : 0 cells.
Marked for refinement due to curvature/regions             : 10 cells.
Determined cells to refine in = 0.031 s
Selected for refinement : 14 cells (out of 20051)
Edge intersection testing:
    Number of edges             : 70669
    Number of edges to retest   : 1041
    Number of intersected edges : 9443
Refined mesh in = 0.078 s
After refinement surface refinement iteration 3 : cells:20149  faces:70669  points:31218
Cells per refinement level:
    0	0
    1	56
    2	597
    3	2867
    4	7325
    5	9304

Surface refinement iteration 4
------------------------------

Marked for refinement due to surface intersection          : 0 cells.
Marked for refinement due to curvature/regions             : 10 cells.
Determined cells to refine in = 0.032 s
Selected for refinement : 17 cells (out of 20149)
Edge intersection testing:
    Number of edges             : 71074
    Number of edges to retest   : 1238
    Number of intersected edges : 9483
Refined mesh in = 0.093 s
After refinement surface refinement iteration 4 : cells:20268  faces:71074  points:31385
Cells per refinement level:
    0	0
    1	56
    2	596
    3	2869
    4	7363
    5	9384

Surface refinement iteration 5
------------------------------

Marked for refinement due to surface intersection          : 0 cells.
Marked for refinement due to curvature/regions             : 10 cells.
Determined cells to refine in = 0.016 s
Selected for refinement : 14 cells (out of 20268)
Edge intersection testing:
    Number of edges             : 71404
    Number of edges to retest   : 1023
    Number of intersected edges : 9523
Refined mesh in = 0.094 s
After refinement surface refinement iteration 5 : cells:20366  faces:71404  points:31519
Cells per refinement level:
    0	0
    1	56
    2	596
    3	2865
    4	7385
    5	9464

Surface refinement iteration 6
------------------------------

Marked for refinement due to surface intersection          : 0 cells.
Marked for refinement due to curvature/regions             : 10 cells.
Determined cells to refine in = 0.031 s
Selected for refinement : 18 cells (out of 20366)
Edge intersection testing:
    Number of edges             : 71830
    Number of edges to retest   : 1304
    Number of intersected edges : 9563
Refined mesh in = 0.078 s
After refinement surface refinement iteration 6 : cells:20492  faces:71830  points:31693
Cells per refinement level:
    0	0
    1	56
    2	594
    3	2875
    4	7423
    5	9544

Surface refinement iteration 7
------------------------------

Marked for refinement due to surface intersection          : 0 cells.
Marked for refinement due to curvature/regions             : 10 cells.
Determined cells to refine in = 0.031 s
Selected for refinement : 14 cells (out of 20492)
Edge intersection testing:
    Number of edges             : 72160
    Number of edges to retest   : 1023
    Number of intersected edges : 9603
Refined mesh in = 0.094 s
After refinement surface refinement iteration 7 : cells:20590  faces:72160  points:31827
Cells per refinement level:
    0	0
    1	56
    2	594
    3	2871
    4	7445
    5	9624

Surface refinement iteration 8
------------------------------

Marked for refinement due to surface intersection          : 0 cells.
Marked for refinement due to curvature/regions             : 10 cells.
Determined cells to refine in = 0.016 s
Selected for refinement : 17 cells (out of 20590)
Edge intersection testing:
    Number of edges             : 72565
    Number of edges to retest   : 1238
    Number of intersected edges : 9643
Refined mesh in = 0.094 s
After refinement surface refinement iteration 8 : cells:20709  faces:72565  points:31994
Cells per refinement level:
    0	0
    1	56
    2	593
    3	2873
    4	7483
    5	9704

Surface refinement iteration 9
------------------------------

Marked for refinement due to surface intersection          : 0 cells.
Marked for refinement due to curvature/regions             : 10 cells.
Determined cells to refine in = 0.031 s
Selected for refinement : 14 cells (out of 20709)
Edge intersection testing:
    Number of edges             : 72895
    Number of edges to retest   : 1029
    Number of intersected edges : 9683
Refined mesh in = 0.078 s
After refinement surface refinement iteration 9 : cells:20807  faces:72895  points:32128
Cells per refinement level:
    0	0
    1	56
    2	593
    3	2869
    4	7505
    5	9784

Surface refinement iteration 10
------------------------------

Marked for refinement due to surface intersection          : 0 cells.
Marked for refinement due to curvature/regions             : 10 cells.
Determined cells to refine in = 0.031 s
Selected for refinement : 18 cells (out of 20807)
Edge intersection testing:
    Number of edges             : 73321
    Number of edges to retest   : 1292
    Number of intersected edges : 9723
Refined mesh in = 0.079 s
After refinement surface refinement iteration 10 : cells:20933  faces:73321  points:32302
Cells per refinement level:
    0	0
    1	56
    2	591
    3	2879
    4	7543
    5	9864

Surface refinement iteration 11
------------------------------

Marked for refinement due to surface intersection          : 0 cells.
Marked for refinement due to curvature/regions             : 10 cells.
Determined cells to refine in = 0.032 s
Selected for refinement : 14 cells (out of 20933)
Edge intersection testing:
    Number of edges             : 73645
    Number of edges to retest   : 1049
    Number of intersected edges : 9763
Refined mesh in = 0.079 s
After refinement surface refinement iteration 11 : cells:21031  faces:73645  points:32428
Cells per refinement level:
    0	0
    1	56
    2	591
    3	2875
    4	7565
    5	9944

Surface refinement iteration 12
------------------------------

Marked for refinement due to surface intersection          : 0 cells.
Marked for refinement due to curvature/regions             : 10 cells.
Determined cells to refine in = 0.032 s
Selected for refinement : 21 cells (out of 21031)
Edge intersection testing:
    Number of edges             : 74146
    Number of edges to retest   : 1490
    Number of intersected edges : 9803
Refined mesh in = 0.095 s
After refinement surface refinement iteration 12 : cells:21178  faces:74146  points:32635
Cells per refinement level:
    0	0
    1	56
    2	586
    3	2909
    4	7603
    5	10024

Surface refinement iteration 13
------------------------------

Marked for refinement due to surface intersection          : 0 cells.
Marked for refinement due to curvature/regions             : 10 cells.
Determined cells to refine in = 0.032 s
Selected for refinement : 16 cells (out of 21178)
Edge intersection testing:
    Number of edges             : 74524
    Number of edges to retest   : 1185
    Number of intersected edges : 9819
Refined mesh in = 0.079 s
After refinement surface refinement iteration 13 : cells:21290  faces:74524  points:32791
Cells per refinement level:
    0	0
    1	56
    2	584
    3	2921
    4	7625
    5	10104

Surface refinement iteration 14
------------------------------

Marked for refinement due to surface intersection          : 0 cells.
Marked for refinement due to curvature/regions             : 2 cells.
Determined cells to refine in = 0.031 s
Selected for refinement : 4 cells (out of 21290)
Edge intersection testing:
    Number of edges             : 74620
    Number of edges to retest   : 288
    Number of intersected edges : 9827
Refined mesh in = 0.08 s
After refinement surface refinement iteration 14 : cells:21318  faces:74620  points:32831
Cells per refinement level:
    0	0
    1	56
    2	584
    3	2919
    4	7639
    5	10120

Surface refinement iteration 15
------------------------------

Marked for refinement due to surface intersection          : 0 cells.
Marked for refinement due to curvature/regions             : 2 cells.
Determined cells to refine in = 0.031 s
Selected for refinement : 2 cells (out of 21318)
Edge intersection testing:
    Number of edges             : 74668
    Number of edges to retest   : 151
    Number of intersected edges : 9835
Refined mesh in = 0.087 s
After refinement surface refinement iteration 15 : cells:21332  faces:74668  points:32851
Cells per refinement level:
    0	0
    1	56
    2	584
    3	2919
    4	7637
    5	10136

Surface refinement iteration 16
------------------------------

Marked for refinement due to surface intersection          : 0 cells.
Marked for refinement due to curvature/regions             : 2 cells.
Determined cells to refine in = 0.031 s
Selected for refinement : 5 cells (out of 21332)
Edge intersection testing:
    Number of edges             : 74785
    Number of edges to retest   : 354
    Number of intersected edges : 9843
Refined mesh in = 0.088 s
After refinement surface refinement iteration 16 : cells:21367  faces:74785  points:32898
Cells per refinement level:
    0	0
    1	56
    2	583
    3	2925
    4	7651
    5	10152

Surface refinement iteration 17
------------------------------

Marked for refinement due to surface intersection          : 0 cells.
Marked for refinement due to curvature/regions             : 2 cells.
Determined cells to refine in = 0.016 s
Selected for refinement : 2 cells (out of 21367)
Edge intersection testing:
    Number of edges             : 74833
    Number of edges to retest   : 151
    Number of intersected edges : 9851
Refined mesh in = 0.095 s
After refinement surface refinement iteration 17 : cells:21381  faces:74833  points:32918
Cells per refinement level:
    0	0
    1	56
    2	583
    3	2925
    4	7649
    5	10168

Surface refinement iteration 18
------------------------------

Marked for refinement due to surface intersection          : 0 cells.
Marked for refinement due to curvature/regions             : 2 cells.
Determined cells to refine in = 0.031 s
Selected for refinement : 4 cells (out of 21381)
Edge intersection testing:
    Number of edges             : 74929
    Number of edges to retest   : 288
    Number of intersected edges : 9859
Refined mesh in = 0.082 s
After refinement surface refinement iteration 18 : cells:21409  faces:74929  points:32958
Cells per refinement level:
    0	0
    1	56
    2	583
    3	2923
    4	7663
    5	10184

Surface refinement iteration 19
------------------------------

Marked for refinement due to surface intersection          : 0 cells.
Marked for refinement due to curvature/regions             : 2 cells.
Determined cells to refine in = 0.031 s
Selected for refinement : 2 cells (out of 21409)
Edge intersection testing:
    Number of edges             : 74977
    Number of edges to retest   : 151
    Number of intersected edges : 9867
Refined mesh in = 0.077 s
After refinement surface refinement iteration 19 : cells:21423  faces:74977  points:32978
Cells per refinement level:
    0	0
    1	56
    2	583
    3	2923
    4	7661
    5	10200

Surface refinement iteration 20
------------------------------

Marked for refinement due to surface intersection          : 0 cells.
Marked for refinement due to curvature/regions             : 2 cells.
Determined cells to refine in = 0.032 s
Selected for refinement : 5 cells (out of 21423)
Edge intersection testing:
    Number of edges             : 75094
    Number of edges to retest   : 354
    Number of intersected edges : 9875
Refined mesh in = 0.095 s
After refinement surface refinement iteration 20 : cells:21458  faces:75094  points:33025
Cells per refinement level:
    0	0
    1	56
    2	582
    3	2929
    4	7675
    5	10216

Surface refinement iteration 21
------------------------------

Marked for refinement due to surface intersection          : 0 cells.
Marked for refinement due to curvature/regions             : 2 cells.
Determined cells to refine in = 0.015 s
Selected for refinement : 2 cells (out of 21458)
Edge intersection testing:
    Number of edges             : 75142
    Number of edges to retest   : 151
    Number of intersected edges : 9883
Refined mesh in = 0.094 s
After refinement surface refinement iteration 21 : cells:21472  faces:75142  points:33045
Cells per refinement level:
    0	0
    1	56
    2	582
    3	2929
    4	7673
    5	10232

Surface refinement iteration 22
------------------------------

Marked for refinement due to surface intersection          : 0 cells.
Marked for refinement due to curvature/regions             : 2 cells.
Determined cells to refine in = 0.031 s
Selected for refinement : 4 cells (out of 21472)
Edge intersection testing:
    Number of edges             : 75238
    Number of edges to retest   : 288
    Number of intersected edges : 9891
Refined mesh in = 0.078 s
After refinement surface refinement iteration 22 : cells:21500  faces:75238  points:33085
Cells per refinement level:
    0	0
    1	56
    2	582
    3	2927
    4	7687
    5	10248

Surface refinement iteration 23
------------------------------

Marked for refinement due to surface intersection          : 0 cells.
Marked for refinement due to curvature/regions             : 2 cells.
Determined cells to refine in = 0.031 s
Selected for refinement : 2 cells (out of 21500)
Edge intersection testing:
    Number of edges             : 75286
    Number of edges to retest   : 151
    Number of intersected edges : 9899
Refined mesh in = 0.094 s
After refinement surface refinement iteration 23 : cells:21514  faces:75286  points:33105
Cells per refinement level:
    0	0
    1	56
    2	582
    3	2927
    4	7685
    5	10264

Surface refinement iteration 24
------------------------------

Marked for refinement due to surface intersection          : 0 cells.
Marked for refinement due to curvature/regions             : 2 cells.
Determined cells to refine in = 0.016 s
Selected for refinement : 5 cells (out of 21514)
Edge intersection testing:
    Number of edges             : 75403
    Number of edges to retest   : 348
    Number of intersected edges : 9907
Refined mesh in = 0.094 s
After refinement surface refinement iteration 24 : cells:21549  faces:75403  points:33152
Cells per refinement level:
    0	0
    1	56
    2	581
    3	2933
    4	7699
    5	10280

Surface refinement iteration 25
------------------------------

Marked for refinement due to surface intersection          : 0 cells.
Marked for refinement due to curvature/regions             : 2 cells.
Determined cells to refine in = 0.031 s
Selected for refinement : 2 cells (out of 21549)
Edge intersection testing:
    Number of edges             : 75451
    Number of edges to retest   : 151
    Number of intersected edges : 9915
Refined mesh in = 0.078 s
After refinement surface refinement iteration 25 : cells:21563  faces:75451  points:33172
Cells per refinement level:
    0	0
    1	56
    2	581
    3	2933
    4	7697
    5	10296

Surface refinement iteration 26
------------------------------

Marked for refinement due to surface intersection          : 0 cells.
Marked for refinement due to curvature/regions             : 2 cells.
Determined cells to refine in = 0.031 s
Selected for refinement : 7 cells (out of 21563)
Edge intersection testing:
    Number of edges             : 75619
    Number of edges to retest   : 478
    Number of intersected edges : 9923
Refined mesh in = 0.094 s
After refinement surface refinement iteration 26 : cells:21612  faces:75619  points:33242
Cells per refinement level:
    0	0
    1	55
    2	587
    3	2947
    4	7711
    5	10312

Surface refinement iteration 27
------------------------------

Marked for refinement due to surface intersection          : 0 cells.
Marked for refinement due to curvature/regions             : 2 cells.
Determined cells to refine in = 0.031 s
Selected for refinement : 3 cells (out of 21612)
Edge intersection testing:
    Number of edges             : 75697
    Number of edges to retest   : 194
    Number of intersected edges : 9931
Refined mesh in = 0.078 s
After refinement surface refinement iteration 27 : cells:21633  faces:75697  points:33280
Cells per refinement level:
    0	0
    1	55
    2	587
    3	2946
    4	7717
    5	10328

Surface refinement iteration 28
------------------------------

Marked for refinement due to surface intersection          : 0 cells.
Marked for refinement due to curvature/regions             : 4 cells.
Determined cells to refine in = 0.032 s
Selected for refinement : 6 cells (out of 21633)
Edge intersection testing:
    Number of edges             : 75841
    Number of edges to retest   : 449
    Number of intersected edges : 9947
Refined mesh in = 0.093 s
After refinement surface refinement iteration 28 : cells:21675  faces:75841  points:33340
Cells per refinement level:
    0	0
    1	55
    2	587
    3	2944
    4	7729
    5	10360

Surface refinement iteration 29
------------------------------

Marked for refinement due to surface intersection          : 0 cells.
Marked for refinement due to curvature/regions             : 4 cells.
Determined cells to refine in = 0.016 s
Selected for refinement : 6 cells (out of 21675)
Edge intersection testing:
    Number of edges             : 75985
    Number of edges to retest   : 445
    Number of intersected edges : 9963
Refined mesh in = 0.094 s
After refinement surface refinement iteration 29 : cells:21717  faces:75985  points:33400
Cells per refinement level:
    0	0
    1	55
    2	587
    3	2942
    4	7741
    5	10392

Surface refinement iteration 30
------------------------------

Marked for refinement due to surface intersection          : 0 cells.
Marked for refinement due to curvature/regions             : 4 cells.
Determined cells to refine in = 0.031 s
Selected for refinement : 7 cells (out of 21717)
Edge intersection testing:
    Number of edges             : 76150
    Number of edges to retest   : 505
    Number of intersected edges : 9979
Refined mesh in = 0.078 s
After refinement surface refinement iteration 30 : cells:21766  faces:76150  points:33467
Cells per refinement level:
    0	0
    1	55
    2	586
    3	2948
    4	7753
    5	10424

Surface refinement iteration 31
------------------------------

Marked for refinement due to surface intersection          : 0 cells.
Marked for refinement due to curvature/regions             : 4 cells.
Determined cells to refine in = 0.031 s
Selected for refinement : 8 cells (out of 21766)
Edge intersection testing:
    Number of edges             : 76336
    Number of edges to retest   : 594
    Number of intersected edges : 9995
Refined mesh in = 0.094 s
After refinement surface refinement iteration 31 : cells:21822  faces:76336  points:33541
Cells per refinement level:
    0	0
    1	54
    2	593
    3	2954
    4	7765
    5	10456

Surface refinement iteration 32
------------------------------

Marked for refinement due to surface intersection          : 0 cells.
Marked for refinement due to curvature/regions             : 4 cells.
Determined cells to refine in = 0.031 s
Selected for refinement : 6 cells (out of 21822)
Edge intersection testing:
    Number of edges             : 76480
    Number of edges to retest   : 439
    Number of intersected edges : 10011
Refined mesh in = 0.078 s
After refinement surface refinement iteration 32 : cells:21864  faces:76480  points:33601
Cells per refinement level:
    0	0
    1	54
    2	593
    3	2952
    4	7777
    5	10488

Surface refinement iteration 33
------------------------------

Marked for refinement due to surface intersection          : 0 cells.
Marked for refinement due to curvature/regions             : 4 cells.
Determined cells to refine in = 0.032 s
Selected for refinement : 6 cells (out of 21864)
Edge intersection testing:
    Number of edges             : 76624
    Number of edges to retest   : 439
    Number of intersected edges : 10027
Refined mesh in = 0.093 s
After refinement surface refinement iteration 33 : cells:21906  faces:76624  points:33661
Cells per refinement level:
    0	0
    1	54
    2	593
    3	2950
    4	7789
    5	10520

Surface refinement iteration 34
------------------------------

Marked for refinement due to surface intersection          : 0 cells.
Marked for refinement due to curvature/regions             : 4 cells.
Determined cells to refine in = 0.032 s
Selected for refinement : 7 cells (out of 21906)
Edge intersection testing:
    Number of edges             : 76789
    Number of edges to retest   : 505
    Number of intersected edges : 10043
Refined mesh in = 0.078 s
After refinement surface refinement iteration 34 : cells:21955  faces:76789  points:33728
Cells per refinement level:
    0	0
    1	54
    2	592
    3	2956
    4	7801
    5	10552

Surface refinement iteration 35
------------------------------

Marked for refinement due to surface intersection          : 0 cells.
Marked for refinement due to curvature/regions             : 4 cells.
Determined cells to refine in = 0.031 s
Selected for refinement : 7 cells (out of 21955)
Edge intersection testing:
    Number of edges             : 76954
    Number of edges to retest   : 499
    Number of intersected edges : 10059
Refined mesh in = 0.094 s
After refinement surface refinement iteration 35 : cells:22004  faces:76954  points:33795
Cells per refinement level:
    0	0
    1	54
    2	591
    3	2962
    4	7813
    5	10584

Surface refinement iteration 36
------------------------------

Marked for refinement due to surface intersection          : 0 cells.
Marked for refinement due to curvature/regions             : 4 cells.
Determined cells to refine in = 0.031 s
Selected for refinement : 6 cells (out of 22004)
Edge intersection testing:
    Number of edges             : 77098
    Number of edges to retest   : 442
    Number of intersected edges : 10075
Refined mesh in = 0.08 s
After refinement surface refinement iteration 36 : cells:22046  faces:77098  points:33855
Cells per refinement level:
    0	0
    1	54
    2	591
    3	2960
    4	7825
    5	10616

Surface refinement iteration 37
------------------------------

Marked for refinement due to surface intersection          : 0 cells.
Marked for refinement due to curvature/regions             : 4 cells.
Determined cells to refine in = 0.032 s
Selected for refinement : 6 cells (out of 22046)
Edge intersection testing:
    Number of edges             : 77242
    Number of edges to retest   : 426
    Number of intersected edges : 10091
Refined mesh in = 0.079 s
After refinement surface refinement iteration 37 : cells:22088  faces:77242  points:33915
Cells per refinement level:
    0	0
    1	54
    2	591
    3	2958
    4	7837
    5	10648

Surface refinement iteration 38
------------------------------

Marked for refinement due to surface intersection          : 0 cells.
Marked for refinement due to curvature/regions             : 2 cells.
Determined cells to refine in = 0.031 s
Selected for refinement : 2 cells (out of 22088)
Edge intersection testing:
    Number of edges             : 77290
    Number of edges to retest   : 142
    Number of intersected edges : 10099
Refined mesh in = 0.095 s
After refinement surface refinement iteration 38 : cells:22102  faces:77290  points:33935
Cells per refinement level:
    0	0
    1	54
    2	591
    3	2958
    4	7835
    5	10664

Surface refinement iteration 39
------------------------------

Marked for refinement due to surface intersection          : 0 cells.
Marked for refinement due to curvature/regions             : 0 cells.
Determined cells to refine in = 0.032 s
Selected for refinement : 0 cells (out of 22102)
Stopping refining since too few cells selected.


Removing mesh beyond surface intersections
------------------------------------------

Found point (112.91868 190.51027 9.3970465) in global region 0 out of 6 regions.
Keeping all cells in region 0 containing point (112.91868 190.51027 9.3970465)
Selected for keeping : 18838 cells.
Edge intersection testing:
    Number of edges             : 70458
    Number of edges to retest   : 7879
    Number of intersected edges : 10099

Shell refinement iteration 0
----------------------------

Marked for refinement due to distance to explicit features : 0 cells.
Marked for refinement due to refinement shells             : 1334 cells.
Determined cells to refine in = 0.253 s
Selected for internal refinement : 4828 cells (out of 18838)
Edge intersection testing:
    Number of edges             : 179292
    Number of edges to retest   : 176545
    Number of intersected edges : 14464
Refined mesh in = 0.336 s
After refinement shell refinement iteration 0 : cells:52634  faces:179292  points:73927
Cells per refinement level:
    0	0
    1	30
    2	443
    3	3693
    4	16556
    5	31912

Shell refinement iteration 1
----------------------------

Marked for refinement due to distance to explicit features : 0 cells.
Marked for refinement due to refinement shells             : 3017 cells.
Determined cells to refine in = 0.044 s
Selected for internal refinement : 4317 cells (out of 52634)
Edge intersection testing:
    Number of edges             : 274788
    Number of edges to retest   : 172228
    Number of intersected edges : 14322
Refined mesh in = 0.424 s
After refinement shell refinement iteration 1 : cells:82853  faces:274788  points:109096
Cells per refinement level:
    0	0
    1	8
    2	499
    3	3387
    4	23775
    5	55184

Shell refinement iteration 2
----------------------------

Marked for refinement due to distance to explicit features : 0 cells.
Marked for refinement due to refinement shells             : 4626 cells.
Determined cells to refine in = 0.078 s
Selected for internal refinement : 4803 cells (out of 82853)
Edge intersection testing:
    Number of edges             : 381186
    Number of edges to retest   : 154902
    Number of intersected edges : 14322
Refined mesh in = 0.501 s
After refinement shell refinement iteration 2 : cells:116474  faces:381186  points:148189
Cells per refinement level:
    0	0
    1	2
    2	515
    3	3456
    4	20693
    5	91808

Shell refinement iteration 3
----------------------------

Marked for refinement due to distance to explicit features : 0 cells.
Marked for refinement due to refinement shells             : 29 cells.
Determined cells to refine in = 0.078 s
Selected for internal refinement : 276 cells (out of 116474)
Edge intersection testing:
    Number of edges             : 387099
    Number of edges to retest   : 21893
    Number of intersected edges : 14322
Refined mesh in = 0.468 s
After refinement shell refinement iteration 3 : cells:118406  faces:387099  points:150235
Cells per refinement level:
    0	0
    1	1
    2	508
    3	3345
    4	22512
    5	92040

Shell refinement iteration 4
----------------------------

Marked for refinement due to distance to explicit features : 0 cells.
Marked for refinement due to refinement shells             : 0 cells.
Determined cells to refine in = 0.079 s
Selected for internal refinement : 23 cells (out of 118406)
Edge intersection testing:
    Number of edges             : 387615
    Number of edges to retest   : 2098
    Number of intersected edges : 14322
Refined mesh in = 0.453 s
After refinement shell refinement iteration 4 : cells:118567  faces:387615  points:150428
Cells per refinement level:
    0	0
    1	1
    2	486
    3	3520
    4	22520
    5	92040

Shell refinement iteration 5
----------------------------

Marked for refinement due to distance to explicit features : 0 cells.
Marked for refinement due to refinement shells             : 0 cells.
Determined cells to refine in = 0.078 s
Selected for internal refinement : 1 cells (out of 118567)
Edge intersection testing:
    Number of edges             : 387633
    Number of edges to retest   : 103
    Number of intersected edges : 14322
Refined mesh in = 0.453 s
After refinement shell refinement iteration 5 : cells:118574  faces:387633  points:150432
Cells per refinement level:
    0	0
    1	0
    2	494
    3	3520
    4	22520
    5	92040

Shell refinement iteration 6
----------------------------

Marked for refinement due to distance to explicit features : 0 cells.
Marked for refinement due to refinement shells             : 0 cells.
Determined cells to refine in = 0.078 s
Selected for internal refinement : 0 cells (out of 118574)
Stopping refining since too few cells selected.


Dangling coarse cells refinement iteration 0
--------------------------------------------

Determined cells to refine in = 0.016 s
Selected for refinement : 18 cells (out of 118574)
Edge intersection testing:
    Number of edges             : 387903
    Number of edges to retest   : 2251
    Number of intersected edges : 14322
Refined mesh in = 0.437 s
After refinement coarse cell refinement iteration 0 : cells:118700  faces:387903  points:150468
Cells per refinement level:
    0	0
    1	0
    2	494
    3	3516
    4	22538
    5	92152

Dangling coarse cells refinement iteration 1
--------------------------------------------

Determined cells to refine in = 0 s
Selected for refinement : 0 cells (out of 118700)
Stopping refining since too few cells selected.


Dangling coarse cells refinement iteration 0
--------------------------------------------

Determined cells to refine in = 0.016 s
Selected for refinement : 0 cells (out of 118700)
Stopping refining since too few cells selected.


Splitting mesh at surface intersections
---------------------------------------

Introducing baffles for 14322 faces that are intersected by the surface.

Edge intersection testing:
    Number of edges             : 400007
    Number of edges to retest   : 98865
    Number of intersected edges : 25458
Created baffles in = 0.437 s


After introducing baffles : cells:118700  faces:400007  points:150468
Cells per refinement level:
    0	0
    1	0
    2	494
    3	3516
    4	22538
    5	92152

Introducing baffles to block off problem cells
----------------------------------------------

markFacesOnProblemCells : marked 10112 additional internal faces to be converted into baffles.
Analyzed problem cells in = 0.297 s


Introducing baffles to delete problem cells.

Edge intersection testing:
    Number of edges             : 410119
    Number of edges to retest   : 44006
    Number of intersected edges : 25458
Created baffles in = 0.422 s


After introducing baffles : cells:118700  faces:410119  points:150468
Cells per refinement level:
    0	0
    1	0
    2	494
    3	3516
    4	22538
    5	92152

Remove unreachable sections of mesh
-----------------------------------

Keeping all cells in region 0 containing point (112.91868 190.51027 9.3970465)
Selected for keeping : 98387 cells.
Edge intersection testing:
    Number of edges             : 324636
    Number of edges to retest   : 0
    Number of intersected edges : 11992
Split mesh in = 1.25 s


After subsetting : cells:98387  faces:324636  points:128600
Cells per refinement level:
    0	0
    1	0
    2	494
    3	3516
    4	20136
    5	74241

Handling cells with snap problems
---------------------------------

Introducing baffles for 11992 faces that are intersected by the surface.

Edge intersection testing:
    Number of edges             : 324636
    Number of edges to retest   : 48004
    Number of intersected edges : 11992
Created baffles in = 0.266 s


After introducing baffles : cells:98387  faces:324636  points:128600
Cells per refinement level:
    0	0
    1	0
    2	494
    3	3516
    4	20136
    5	74241

Introducing baffles to block off problem cells
----------------------------------------------

markFacesOnProblemCells : marked 0 additional internal faces to be converted into baffles.
Analyzed problem cells in = 0.218 s


Introducing baffles to delete problem cells.

Edge intersection testing:
    Number of edges             : 324636
    Number of edges to retest   : 0
    Number of intersected edges : 11992
Created baffles in = 0.219 s


After introducing baffles : cells:98387  faces:324636  points:128600
Cells per refinement level:
    0	0
    1	0
    2	494
    3	3516
    4	20136
    5	74241

Remove unreachable sections of mesh
-----------------------------------

Keeping all cells in region 0 containing point (112.91868 190.51027 9.3970465)
Selected for keeping : 98387 cells.
Edge intersection testing:
    Number of edges             : 324636
    Number of edges to retest   : 0
    Number of intersected edges : 11992
Split mesh in = 1.016 s


After subsetting : cells:98387  faces:324636  points:128600
Cells per refinement level:
    0	0
    1	0
    2	494
    3	3516
    4	20136
    5	74241

Merge free-standing baffles
---------------------------

freeStandingBaffles : detected 0 free-standing baffles out of 0

Detected free-standing baffles : 0
Merged free-standing baffles in = 0.078 s


dupNonManifoldPoints : Found : 0 non-manifold points (out of 128600)
Edge intersection testing:
    Number of edges             : 324636
    Number of edges to retest   : 0
    Number of intersected edges : 11992
Detected unsplittable baffles : 0

Merge refined boundary faces
----------------------------

Merging 425 sets of faces.

Edge intersection testing:
    Number of edges             : 324177
    Number of edges to retest   : 2651
    Number of intersected edges : 11533

Undo iteration 0
----------------
Checking faces in error :
    non-orthogonality > 65  degrees                        : 0
    faces with face pyramid volume < 1e-13                 : 0
    faces with concavity > 80  degrees                     : 0
    faces with skewness > 4   (internal) or 4   (boundary) : 0
    faces with interpolation weights (0..1)  < 0.05        : 0
    faces with volume ratio of neighbour cells < 0.01      : 0
    faces on cells with determinant < 0.001                : 0

Merging all points on surface that
- are used by only two boundary faces and
- make an angle with a cosine of more than 0.70710678.

Removing 427 straight edge points ...

Edge intersection testing:
    Number of edges             : 324177
    Number of edges to retest   : 2704
    Number of intersected edges : 11533

Undo iteration 0
----------------
Checking faces in error :
    non-orthogonality > 65  degrees                        : 0
    faces with face pyramid volume < 1e-13                 : 0
    faces with concavity > 80  degrees                     : 0
    faces with skewness > 4   (internal) or 4   (boundary) : 0
    faces with interpolation weights (0..1)  < 0.05        : 0
    faces with volume ratio of neighbour cells < 0.01      : 0
    faces on cells with determinant < 0.001                : 0
Refined mesh : cells:98387  faces:324177  points:128156
Cells per refinement level:
    0	0
    1	0
    2	494
    3	3516
    4	20136
    5	74241
Writing mesh to time constant
Wrote mesh in = 4.453 s.
Mesh refined in = 17.094 s.

Morphing phase
--------------


Snapping to features in 20 iterations ...
Constructing mesh displacer ...
Using mesh parameters 
{
    maxNonOrtho     65;
    maxBoundarySkewness 4;
    maxInternalSkewness 4;
    maxConcave      80;
    minVol          1e-13;
    minTetQuality   -1e+30;
    minArea         -1;
    minTwist        -1e+30;
    minDeterminant  0.001;
    minFaceWeight   0.05;
    minVolRatio     0.01;
    minTriangleTwist -1;
    nSmoothScale    4;
    errorReduction  0.75;
    relaxed
    {
        maxNonOrtho     75;
    }
}


Checking initial mesh ...
Checking faces in error :
    non-orthogonality > 65  degrees                        : 0
    faces with face pyramid volume < 1e-13                 : 0
    faces with concavity > 80  degrees                     : 0
    faces with skewness > 4   (internal) or 4   (boundary) : 0
    faces with interpolation weights (0..1)  < 0.05        : 0
    faces with volume ratio of neighbour cells < 0.01      : 0
    faces on cells with determinant < 0.001                : 0
Detected 0 illegal faces (concave, zero area or negative cell pyramid volume)
Checked initial mesh in = 0.203 s


Smoothing patch points ...
Smoothing iteration 0
Found 0 non-manifold point(s).

Scaling iteration 0
Moving mesh using displacement scaling : min:1  max:1
Checking faces in error :
    non-orthogonality > 65  degrees                        : 0
    faces with face pyramid volume < 1e-13                 : 0
    faces with concavity > 80  degrees                     : 0
    faces with skewness > 4   (internal) or 4   (boundary) : 0
    faces with interpolation weights (0..1)  < 0.05        : 0
    faces with volume ratio of neighbour cells < 0.01      : 0
    faces on cells with determinant < 0.001                : 0
Successfully moved mesh

Smoothing iteration 1
Found 0 non-manifold point(s).

Scaling iteration 0
Moving mesh using displacement scaling : min:1  max:1
Checking faces in error :
    non-orthogonality > 65  degrees                        : 0
    faces with face pyramid volume < 1e-13                 : 0
    faces with concavity > 80  degrees                     : 0
    faces with skewness > 4   (internal) or 4   (boundary) : 0
    faces with interpolation weights (0..1)  < 0.05        : 0
    faces with volume ratio of neighbour cells < 0.01      : 0
    faces on cells with determinant < 0.001                : 0
Successfully moved mesh

Smoothing iteration 2
Found 0 non-manifold point(s).

Scaling iteration 0
Moving mesh using displacement scaling : min:1  max:1
Checking faces in error :
    non-orthogonality > 65  degrees                        : 0
    faces with face pyramid volume < 1e-13                 : 0
    faces with concavity > 80  degrees                     : 0
    faces with skewness > 4   (internal) or 4   (boundary) : 0
    faces with interpolation weights (0..1)  < 0.05        : 0
    faces with volume ratio of neighbour cells < 0.01      : 0
    faces on cells with determinant < 0.001                : 0
Successfully moved mesh

Patch points smoothed in = 0.735 s



Morph iteration 0
-----------------
Calculating patchDisplacement as distance to nearest surface point ...
Wanted displacement : average:0.083148809 min:0.00010203229 max:0.29113324
Calculated surface displacement in = 0.015 s


Detecting near surfaces ...
Overriding nearest with intersection of close gaps at 0 out of 12292 points.
Overriding displacement on features :
   implicit features    : false
   explicit features    : true
   multi-patch features : false

Detected 0 baffle edges out of 23932 edges.
Initially selected 1470 points out of 12292 for reverse attraction.
Selected 3898 points out of 12292 for reverse attraction.
Stringing feature edges : changed 14 points
Stringing feature edges : changed 0 points
Attraction:
     linear   : max:(-0.29113324 0 0) avg:(-0.0015193646 0.0020358307 0.0089453473)
     feature  : max:(0.18544969 0.26271658 0.12782227) avg:(-4.0395126e-05 0.0011342263 0.010176233)
Feature analysis : total master points:12292 attraction to :
    feature point   : 54
    feature edge    : 1402
    nearest surface : 0
    rest            : 10836

--> FOAM Warning : Displacement (-1.0083713e-06 0.00077480146 -1.2342358e-05) at mesh point 69 coord (109.63201 214.96327 5.8491158) points through the surrounding patch faces
Smoothing displacement ...
Iteration 0
Iteration 10
Iteration 20
Iteration 30
Iteration 40
Iteration 50
Iteration 60
Iteration 70
Displacement smoothed in = 0.61 s


Moving mesh ...

Iteration 0
Moving mesh using displacement scaling : min:1  max:1
Checking faces in error :
    non-orthogonality > 65  degrees                        : 0
    faces with face pyramid volume < 1e-13                 : 0
    faces with concavity > 80  degrees                     : 0
    faces with skewness > 4   (internal) or 4   (boundary) : 0
    faces with interpolation weights (0..1)  < 0.05        : 0
    faces with volume ratio of neighbour cells < 0.01      : 0
    faces on cells with determinant < 0.001                : 0
Successfully moved mesh
Moved mesh in = 0.218 s



Morph iteration 1
-----------------
Calculating patchDisplacement as distance to nearest surface point ...
Wanted displacement : average:0.080741768 min:0.00035493235 max:0.28055864
Calculated surface displacement in = 0.016 s


Detecting near surfaces ...
Overriding nearest with intersection of close gaps at 0 out of 12292 points.
Overriding displacement on features :
   implicit features    : false
   explicit features    : true
   multi-patch features : false

Detected 0 baffle edges out of 23932 edges.
Initially selected 1470 points out of 12292 for reverse attraction.
Selected 3898 points out of 12292 for reverse attraction.
Stringing feature edges : changed 14 points
Stringing feature edges : changed 0 points
Attraction:
     linear   : max:(-0.28055864 0 0) avg:(-0.0014478251 0.0019942903 0.0086143172)
     feature  : max:(0.18498606 0.26205979 0.12143116) avg:(-3.8055948e-05 0.0011284689 0.010088151)
Feature analysis : total master points:12292 attraction to :
    feature point   : 54
    feature edge    : 1402
    nearest surface : 0
    rest            : 10836

--> FOAM Warning : Displacement (-3.5621778e-06 0.0019388714 -4.5442049e-05) at mesh point 69 coord (109.63201 214.96404 5.8491035) points through the surrounding patch faces
Smoothing displacement ...
Iteration 0
Iteration 10
Iteration 20
Iteration 30
Iteration 40
Iteration 50
Iteration 60
Iteration 70
Displacement smoothed in = 0.597 s


Moving mesh ...

Iteration 0
Moving mesh using displacement scaling : min:1  max:1
Checking faces in error :
    non-orthogonality > 65  degrees                        : 0
    faces with face pyramid volume < 1e-13                 : 0
    faces with concavity > 80  degrees                     : 0
    faces with skewness > 4   (internal) or 4   (boundary) : 0
    faces with interpolation weights (0..1)  < 0.05        : 0
    faces with volume ratio of neighbour cells < 0.01      : 0
    faces on cells with determinant < 0.001                : 0
Successfully moved mesh
Moved mesh in = 0.221 s



Morph iteration 2
-----------------
Calculating patchDisplacement as distance to nearest surface point ...
Wanted displacement : average:0.075934159 min:0.00073873222 max:0.2596793
Calculated surface displacement in = 0.016 s


Detecting near surfaces ...
Overriding nearest with intersection of close gaps at 0 out of 12292 points.
Overriding displacement on features :
   implicit features    : false
   explicit features    : true
   multi-patch features : false

Detected 0 baffle edges out of 23932 edges.
Initially selected 1474 points out of 12292 for reverse attraction.
Selected 3866 points out of 12292 for reverse attraction.
Stringing feature edges : changed 14 points
Stringing feature edges : changed 0 points
Attraction:
     linear   : max:(-0.2596793 0 0) avg:(-0.001311183 0.0019017694 0.0079979176)
     feature  : max:(0.1831362 0.25943919 0.10928805) avg:(-3.364698e-05 0.0011119562 0.0099093453)
Feature analysis : total master points:12292 attraction to :
    feature point   : 54
    feature edge    : 1402
    nearest surface : 0
    rest            : 10836

--> FOAM Warning : Displacement (-6.0449576e-06 0.0035131897 -8.5093141e-05) at mesh point 69 coord (109.632 214.96598 5.849058) points through the surrounding patch faces
Smoothing displacement ...
Iteration 0
Iteration 10
Iteration 20
Iteration 30
Iteration 40
Iteration 50
Iteration 60
Iteration 70
Displacement smoothed in = 0.585 s


Moving mesh ...

Iteration 0
Moving mesh using displacement scaling : min:1  max:1
Checking faces in error :
    non-orthogonality > 65  degrees                        : 0
    faces with face pyramid volume < 1e-13                 : 0
    faces with concavity > 80  degrees                     : 0
    faces with skewness > 4   (internal) or 4   (boundary) : 0
    faces with interpolation weights (0..1)  < 0.05        : 0
    faces with volume ratio of neighbour cells < 0.01      : 0
    faces on cells with determinant < 0.001                : 0
Successfully moved mesh
Moved mesh in = 0.222 s



Morph iteration 3
-----------------
Calculating patchDisplacement as distance to nearest surface point ...
Wanted displacement : average:0.069007493 min:0.00065148909 max:0.23277396
Calculated surface displacement in = 0.015 s


Detecting near surfaces ...
Overriding nearest with intersection of close gaps at 0 out of 12292 points.
Overriding displacement on features :
   implicit features    : false
   explicit features    : true
   multi-patch features : false

Detected 0 baffle edges out of 23932 edges.
Initially selected 1478 points out of 12292 for reverse attraction.
Selected 3834 points out of 12292 for reverse attraction.
Stringing feature edges : changed 14 points
Stringing feature edges : changed 0 points
Attraction:
     linear   : max:(-0.23277396 0 0) avg:(-0.0011252127 0.0017526331 0.0071992467)
     feature  : max:(0.16516131 0.23918032 0.15131091) avg:(-2.7754348e-05 0.0010803265 0.0096489468)
Feature analysis : total master points:12292 attraction to :
    feature point   : 54
    feature edge    : 1402
    nearest surface : 0
    rest            : 10836

--> FOAM Warning : Displacement (-6.3717905e-06 0.0053763977 -0.00011077) at mesh point 69 coord (109.632 214.96949 5.8489729) points through the surrounding patch faces
Smoothing displacement ...
Iteration 0
Iteration 10
Iteration 20
Iteration 30
Iteration 40
Iteration 50
Iteration 60
Iteration 70
Displacement smoothed in = 0.594 s


Moving mesh ...

Iteration 0
Moving mesh using displacement scaling : min:1  max:1
Checking faces in error :
    non-orthogonality > 65  degrees                        : 0
    faces with face pyramid volume < 1e-13                 : 0
    faces with concavity > 80  degrees                     : 0
    faces with skewness > 4   (internal) or 4   (boundary) : 0
    faces with interpolation weights (0..1)  < 0.05        : 0
    faces with volume ratio of neighbour cells < 0.01      : 0
    faces on cells with determinant < 0.001                : 0
Successfully moved mesh
Moved mesh in = 0.219 s



Morph iteration 4
-----------------
Calculating patchDisplacement as distance to nearest surface point ...
Wanted displacement : average:0.06047478 min:0.00010020254 max:0.20124521
Calculated surface displacement in = 0.031 s


Detecting near surfaces ...
Overriding nearest with intersection of close gaps at 0 out of 12292 points.
Overriding displacement on features :
   implicit features    : false
   explicit features    : true
   multi-patch features : false

Detected 0 baffle edges out of 23932 edges.
Initially selected 1478 points out of 12292 for reverse attraction.
Selected 3826 points out of 12292 for reverse attraction.
Stringing feature edges : changed 14 points
Stringing feature edges : changed 0 points
Attraction:
     linear   : max:(-0.20124521 0 0) avg:(-0.00091206502 0.0015467996 0.0063562273)
     feature  : max:(0.15855486 0.22961311 0.15131091) avg:(-2.0841163e-05 0.0010301504 0.0093740226)
Feature analysis : total master points:12292 attraction to :
    feature point   : 54
    feature edge    : 1406
    nearest surface : 0
    rest            : 10832

--> FOAM Warning : Displacement (-3.2628572e-06 0.0072637959 -0.0001051703) at mesh point 69 coord (109.63199 214.97487 5.8488622) points through the surrounding patch faces
Smoothing displacement ...
Iteration 0
Iteration 10
Iteration 20
Iteration 30
Iteration 40
Iteration 50
Iteration 60
Iteration 70
Displacement smoothed in = 0.578 s


Moving mesh ...

Iteration 0
Moving mesh using displacement scaling : min:1  max:1
Checking faces in error :
    non-orthogonality > 65  degrees                        : 0
    faces with face pyramid volume < 1e-13                 : 0
    faces with concavity > 80  degrees                     : 0
    faces with skewness > 4   (internal) or 4   (boundary) : 0
    faces with interpolation weights (0..1)  < 0.05        : 0
    faces with volume ratio of neighbour cells < 0.01      : 0
    faces on cells with determinant < 0.001                : 0
Successfully moved mesh
Moved mesh in = 0.219 s



Morph iteration 5
-----------------
Calculating patchDisplacement as distance to nearest surface point ...
Wanted displacement : average:0.051007376 min:1.2337844e-05 max:0.16666555
Calculated surface displacement in = 0.016 s


Detecting near surfaces ...
Overriding nearest with intersection of close gaps at 0 out of 12292 points.
Overriding displacement on features :
   implicit features    : false
   explicit features    : true
   multi-patch features : false

Detected 0 baffle edges out of 23932 edges.
Initially selected 1482 points out of 12292 for reverse attraction.
Selected 3834 points out of 12292 for reverse attraction.
Stringing feature edges : changed 18 points
Stringing feature edges : changed 0 points
Attraction:
     linear   : max:(0 -0.069874279 0.15131091) avg:(-0.00069576991 0.0012913827 0.0056085515)
     feature  : max:(0.14864518 0.21526229 0.15131091) avg:(-1.4248833e-05 0.00095937179 0.0089424637)
Feature analysis : total master points:12292 attraction to :
    feature point   : 58
    feature edge    : 1406
    nearest surface : 0
    rest            : 10828

--> FOAM Warning : Displacement (2.762534e-06 0.0088254095 -6.4178182e-05) at mesh point 69 coord (109.63199 214.98213 5.848757) points through the surrounding patch faces
Smoothing displacement ...
Iteration 0
Iteration 10
Iteration 20
Iteration 30
Iteration 40
Iteration 50
Iteration 60
Iteration 70
Displacement smoothed in = 0.593 s


Moving mesh ...

Iteration 0
Moving mesh using displacement scaling : min:1  max:1
Checking faces in error :
    non-orthogonality > 65  degrees                        : 0
    faces with face pyramid volume < 1e-13                 : 0
    faces with concavity > 80  degrees                     : 0
    faces with skewness > 4   (internal) or 4   (boundary) : 0
    faces with interpolation weights (0..1)  < 0.05        : 0
    faces with volume ratio of neighbour cells < 0.01      : 0
    faces on cells with determinant < 0.001                : 0
Successfully moved mesh
Moved mesh in = 0.219 s



Morph iteration 6
-----------------
Calculating patchDisplacement as distance to nearest surface point ...
Wanted displacement : average:0.041434492 min:4.7773876e-06 max:0.15902013
Calculated surface displacement in = 0.016 s


Detecting near surfaces ...
Overriding nearest with intersection of close gaps at 0 out of 12292 points.
Overriding displacement on features :
   implicit features    : false
   explicit features    : true
   multi-patch features : false

Detected 0 baffle edges out of 23932 edges.
Initially selected 1494 points out of 12292 for reverse attraction.
Selected 3778 points out of 12292 for reverse attraction.
Stringing feature edges : changed 22 points
Stringing feature edges : changed 0 points
Attraction:
     linear   : max:(0 -0.048912296 0.15131091) avg:(-0.00049750017 0.0010015703 0.0050643178)
     feature  : max:(0.13526711 0.19588868 0.15131091) avg:(-8.7960073e-06 0.00086784882 0.0085182112)
Feature analysis : total master points:12292 attraction to :
    feature point   : 62
    feature edge    : 1410
    nearest surface : 0
    rest            : 10820

--> FOAM Warning : Displacement (9.4741515e-06 0.009729837 -6.6213293e-07) at mesh point 69 coord (109.63199 214.99096 5.8486928) points through the surrounding patch faces
Smoothing displacement ...
Iteration 0
Iteration 10
Iteration 20
Iteration 30
Iteration 40
Iteration 50
Iteration 60
Iteration 70
Displacement smoothed in = 0.593 s


Moving mesh ...

Iteration 0
Moving mesh using displacement scaling : min:1  max:1
Checking faces in error :
    non-orthogonality > 65  degrees                        : 0
    faces with face pyramid volume < 1e-13                 : 0
    faces with concavity > 80  degrees                     : 0
    faces with skewness > 4   (internal) or 4   (boundary) : 0
    faces with interpolation weights (0..1)  < 0.05        : 0
    faces with volume ratio of neighbour cells < 0.01      : 0
    faces on cells with determinant < 0.001                : 0
Successfully moved mesh
Moved mesh in = 0.219 s



Morph iteration 7
-----------------
Calculating patchDisplacement as distance to nearest surface point ...
Wanted displacement : average:0.032471736 min:2.4540672e-06 max:0.15461504
Calculated surface displacement in = 0.016 s


Detecting near surfaces ...
Overriding nearest with intersection of close gaps at 0 out of 12292 points.
Overriding displacement on features :
   implicit features    : false
   explicit features    : true
   multi-patch features : false

Detected 0 baffle edges out of 23932 edges.
Initially selected 1494 points out of 12292 for reverse attraction.
Selected 3766 points out of 12292 for reverse attraction.
Stringing feature edges : changed 22 points
Stringing feature edges : changed 0 points
Attraction:
     linear   : max:(0 -0.031793401 0.15131091) avg:(-0.00033191659 0.00069997623 0.0047771931)
     feature  : max:(0.11869689 0.17189232 0.15131091) avg:(-4.4579756e-06 0.00075786925 0.0081157623)
Feature analysis : total master points:12292 attraction to :
    feature point   : 62
    feature edge    : 1410
    nearest surface : 0
    rest            : 10820

--> FOAM Warning : Displacement (1.421853e-05 0.0097754547 6.1621104e-05) at mesh point 69 coord (109.632 215.00069 5.8486922) points through the surrounding patch faces
Smoothing displacement ...
Iteration 0
Iteration 10
Iteration 20
Iteration 30
Iteration 40
Iteration 50
Iteration 60
Iteration 70
Displacement smoothed in = 0.594 s


Moving mesh ...

Iteration 0
Moving mesh using displacement scaling : min:1  max:1
Checking faces in error :
    non-orthogonality > 65  degrees                        : 0
    faces with face pyramid volume < 1e-13                 : 0
    faces with concavity > 80  degrees                     : 0
    faces with skewness > 4   (internal) or 4   (boundary) : 0
    faces with interpolation weights (0..1)  < 0.05        : 0
    faces with volume ratio of neighbour cells < 0.01      : 0
    faces on cells with determinant < 0.001                : 0
Successfully moved mesh
Moved mesh in = 0.218 s



Morph iteration 8
-----------------
Calculating patchDisplacement as distance to nearest surface point ...
Wanted displacement : average:0.024647676 min:3.8768255e-06 max:0.15250871
Calculated surface displacement in = 0.016 s


Detecting near surfaces ...
Overriding nearest with intersection of close gaps at 0 out of 12292 points.
Overriding displacement on features :
   implicit features    : false
   explicit features    : true
   multi-patch features : false

Detected 0 baffle edges out of 23932 edges.
Initially selected 1486 points out of 12292 for reverse attraction.
Selected 3754 points out of 12292 for reverse attraction.
Stringing feature edges : changed 10 points
Stringing feature edges : changed 0 points
Attraction:
     linear   : max:(0 -0.019076575 0.15131091) avg:(-0.00020566136 0.00041389456 0.0047411084)
     feature  : max:(0.099705388 0.14438955 0.15131091) avg:(-1.1949165e-06 0.00063443236 0.0077532956)
Feature analysis : total master points:12292 attraction to :
    feature point   : 50
    feature edge    : 1422
    nearest surface : 0
    rest            : 10820

--> FOAM Warning : Displacement (1.5512785e-05 0.0089615623 0.00010116928) at mesh point 69 coord (109.63201 215.01046 5.8487538) points through the surrounding patch faces
Smoothing displacement ...
Iteration 0
Iteration 10
Iteration 20
Iteration 30
Iteration 40
Iteration 50
Iteration 60
Iteration 70
Displacement smoothed in = 0.594 s


Moving mesh ...

Iteration 0
Moving mesh using displacement scaling : min:1  max:1
Checking faces in error :
    non-orthogonality > 65  degrees                        : 0
    faces with face pyramid volume < 1e-13                 : 0
    faces with concavity > 80  degrees                     : 0
    faces with skewness > 4   (internal) or 4   (boundary) : 0
    faces with interpolation weights (0..1)  < 0.05        : 0
    faces with volume ratio of neighbour cells < 0.01      : 0
    faces on cells with determinant < 0.001                : 0
Successfully moved mesh
Moved mesh in = 0.218 s



Morph iteration 9
-----------------
Calculating patchDisplacement as distance to nearest surface point ...
Wanted displacement : average:0.018722158 min:5.0425291e-06 max:0.15167429
Calculated surface displacement in = 0.016 s


Detecting near surfaces ...
Overriding nearest with intersection of close gaps at 0 out of 12292 points.
Overriding displacement on features :
   implicit features    : false
   explicit features    : true
   multi-patch features : false

Detected 0 baffle edges out of 23932 edges.
Initially selected 1480 points out of 12292 for reverse attraction.
Selected 3748 points out of 12292 for reverse attraction.
Stringing feature edges : changed 4 points
Stringing feature edges : changed 0 points
Attraction:
     linear   : max:(0 -0.010492793 0.15131091) avg:(-0.0001178623 0.00017045117 0.0049020073)
     feature  : max:(0.079515047 0.11515067 0.15131091) avg:(5.6151504e-07 0.00051293751 0.0074261211)
Feature analysis : total master points:12292 attraction to :
    feature point   : 44
    feature edge    : 1428
    nearest surface : 0
    rest            : 10820

--> FOAM Warning : Displacement (1.3713761e-05 0.0074876238 0.00010977933) at mesh point 69 coord (109.63203 215.01943 5.8488549) points through the surrounding patch faces
Smoothing displacement ...
Iteration 0
Iteration 10
Iteration 20
Iteration 30
Iteration 40
Iteration 50
Iteration 60
Iteration 70
Displacement smoothed in = 0.594 s


Moving mesh ...

Iteration 0
Moving mesh using displacement scaling : min:1  max:1
Checking faces in error :
    non-orthogonality > 65  degrees                        : 0
    faces with face pyramid volume < 1e-13                 : 0
    faces with concavity > 80  degrees                     : 0
    faces with skewness > 4   (internal) or 4   (boundary) : 0
    faces with interpolation weights (0..1)  < 0.05        : 0
    faces with volume ratio of neighbour cells < 0.01      : 0
    faces on cells with determinant < 0.001                : 0
Successfully moved mesh
Moved mesh in = 0.219 s



Morph iteration 10
-----------------
Calculating patchDisplacement as distance to nearest surface point ...
Wanted displacement : average:0.015035191 min:6.8439356e-07 max:0.15140186
Calculated surface displacement in = 0.015 s


Detecting near surfaces ...
Overriding nearest with intersection of close gaps at 0 out of 12292 points.
Overriding displacement on features :
   implicit features    : false
   explicit features    : true
   multi-patch features : false

Detected 0 baffle edges out of 23932 edges.
Initially selected 1476 points out of 12292 for reverse attraction.
Selected 3744 points out of 12292 for reverse attraction.
Stringing feature edges : changed 0 points
Attraction:
     linear   : max:(0 -0.0052472313 0.15131091) avg:(-6.2268257e-05 -1.0717327e-05 0.0051830075)
     feature  : max:(0.059636285 0.086362999 0.15131091) avg:(1.1694994e-06 0.00038369241 0.007157373)
Feature analysis : total master points:12292 attraction to :
    feature point   : 40
    feature edge    : 1432
    nearest surface : 0
    rest            : 10820

--> FOAM Warning : Displacement (1.0360295e-05 0.0056817021 9.3999583e-05) at mesh point 69 coord (109.63204 215.02691 5.8489647) points through the surrounding patch faces
Smoothing displacement ...
Iteration 0
Iteration 10
Iteration 20
Iteration 30
Iteration 40
Iteration 50
Iteration 60
Iteration 70
Displacement smoothed in = 0.578 s


Moving mesh ...

Iteration 0
Moving mesh using displacement scaling : min:1  max:1
Checking faces in error :
    non-orthogonality > 65  degrees                        : 0
    faces with face pyramid volume < 1e-13                 : 0
    faces with concavity > 80  degrees                     : 0
    faces with skewness > 4   (internal) or 4   (boundary) : 0
    faces with interpolation weights (0..1)  < 0.05        : 0
    faces with volume ratio of neighbour cells < 0.01      : 0
    faces on cells with determinant < 0.001                : 0
Successfully moved mesh
Moved mesh in = 0.219 s



Morph iteration 11
-----------------
Calculating patchDisplacement as distance to nearest surface point ...
Wanted displacement : average:0.012444173 min:2.0536235e-06 max:0.15132934
Calculated surface displacement in = 0.016 s


Detecting near surfaces ...
Overriding nearest with intersection of close gaps at 0 out of 12292 points.
Overriding displacement on features :
   implicit features    : false
   explicit features    : true
   multi-patch features : false

Detected 0 baffle edges out of 23932 edges.
Initially selected 1472 points out of 12292 for reverse attraction.
Selected 3740 points out of 12292 for reverse attraction.
Stringing feature edges : changed 4 points
Stringing feature edges : changed 0 points
Attraction:
     linear   : max:(0 -0.0023622644 0.15131091) avg:(-3.033157e-05 -0.00011844385 0.0055046567)
     feature  : max:(-0.011119554 0.060238192 0.15131091) avg:(1.1647796e-06 0.00026712572 0.0068743907)
Feature analysis : total master points:12292 attraction to :
    feature point   : 44
    feature edge    : 1428
    nearest surface : 0
    rest            : 10820

--> FOAM Warning : Displacement (6.9643971e-06 0.0038911413 6.7594081e-05) at mesh point 69 coord (109.63205 215.0326 5.8490587) points through the surrounding patch faces
Smoothing displacement ...
Iteration 0
Iteration 10
Iteration 20
Iteration 30
Iteration 40
Iteration 50
Iteration 60
Iteration 70
Displacement smoothed in = 0.578 s


Moving mesh ...

Iteration 0
Moving mesh using displacement scaling : min:1  max:1
Checking faces in error :
    non-orthogonality > 65  degrees                        : 0
    faces with face pyramid volume < 1e-13                 : 0
    faces with concavity > 80  degrees                     : 0
    faces with skewness > 4   (internal) or 4   (boundary) : 0
    faces with interpolation weights (0..1)  < 0.05        : 0
    faces with volume ratio of neighbour cells < 0.01      : 0
    faces on cells with determinant < 0.001                : 0
Successfully moved mesh
Moved mesh in = 0.234 s



Morph iteration 12
-----------------
Calculating patchDisplacement as distance to nearest surface point ...
Wanted displacement : average:0.010545321 min:6.0906268e-07 max:0.15131386
Calculated surface displacement in = 0 s


Detecting near surfaces ...
Overriding nearest with intersection of close gaps at 0 out of 12292 points.
Overriding displacement on features :
   implicit features    : false
   explicit features    : true
   multi-patch features : false

Detected 0 baffle edges out of 23932 edges.
Initially selected 1472 points out of 12292 for reverse attraction.
Selected 3740 points out of 12292 for reverse attraction.
Stringing feature edges : changed 4 points
Stringing feature edges : changed 0 points
Attraction:
     linear   : max:(0 -0.0009461081 0.15131091) avg:(-1.371534e-05 -0.0001578917 0.005803191)
     feature  : max:(-0.0071165145 0.038552443 0.15131091) avg:(9.2299442e-07 0.00017074309 0.0066709925)
Feature analysis : total master points:12292 attraction to :
    feature point   : 44
    feature edge    : 1428
    nearest surface : 0
    rest            : 10820

--> FOAM Warning : Displacement (4.29748e-06 0.0023821156 4.2343799e-05) at mesh point 69 coord (109.63206 215.03649 5.8491263) points through the surrounding patch faces
Smoothing displacement ...
Iteration 0
Iteration 10
Iteration 20
Iteration 30
Iteration 40
Iteration 50
Iteration 60
Iteration 70
Displacement smoothed in = 0.594 s


Moving mesh ...

Iteration 0
Moving mesh using displacement scaling : min:1  max:1
Checking faces in error :
    non-orthogonality > 65  degrees                        : 0
    faces with face pyramid volume < 1e-13                 : 0
    faces with concavity > 80  degrees                     : 0
    faces with skewness > 4   (internal) or 4   (boundary) : 0
    faces with interpolation weights (0..1)  < 0.05        : 0
    faces with volume ratio of neighbour cells < 0.01      : 0
    faces on cells with determinant < 0.001                : 0
Successfully moved mesh
Moved mesh in = 0.219 s



Morph iteration 13
-----------------
Calculating patchDisplacement as distance to nearest surface point ...
Wanted displacement : average:0.0091802792 min:4.6674689e-08 max:0.15131127
Calculated surface displacement in = 0 s


Detecting near surfaces ...
Overriding nearest with intersection of close gaps at 0 out of 12292 points.
Overriding displacement on features :
   implicit features    : false
   explicit features    : true
   multi-patch features : false

Detected 0 baffle edges out of 23932 edges.
Initially selected 1472 points out of 12292 for reverse attraction.
Selected 3740 points out of 12292 for reverse attraction.
Stringing feature edges : changed 4 points
Stringing feature edges : changed 0 points
Attraction:
     linear   : max:(0 -0.00033254892 0.15131091) avg:(-5.8351888e-06 -0.00014674244 0.0060394996)
     feature  : max:(-0.0041097871 0.022264036 0.15131091) avg:(6.03936e-07 9.8522517e-05 0.0065233067)
Feature analysis : total master points:12292 attraction to :
    feature point   : 44
    feature edge    : 1428
    nearest surface : 0
    rest            : 10820

--> FOAM Warning : Displacement (2.4623668e-06 0.0012851952 2.3720586e-05) at mesh point 69 coord (109.63206 215.03887 5.8491687) points through the surrounding patch faces
Smoothing displacement ...
Iteration 0
Iteration 10
Iteration 20
Iteration 30
Iteration 40
Iteration 50
Iteration 60
Iteration 70
Displacement smoothed in = 0.593 s


Moving mesh ...

Iteration 0
Moving mesh using displacement scaling : min:1  max:1
Checking faces in error :
    non-orthogonality > 65  degrees                        : 0
    faces with face pyramid volume < 1e-13                 : 0
    faces with concavity > 80  degrees                     : 0
    faces with skewness > 4   (internal) or 4   (boundary) : 0
    faces with interpolation weights (0..1)  < 0.05        : 0
    faces with volume ratio of neighbour cells < 0.01      : 0
    faces on cells with determinant < 0.001                : 0
Successfully moved mesh
Moved mesh in = 0.219 s



Morph iteration 14
-----------------
Calculating patchDisplacement as distance to nearest surface point ...
Wanted displacement : average:0.0081927115 min:1.709185e-08 max:0.15131094
Calculated surface displacement in = 0.016 s


Detecting near surfaces ...
Overriding nearest with intersection of close gaps at 0 out of 12292 points.
Overriding displacement on features :
   implicit features    : false
   explicit features    : true
   multi-patch features : false

Detected 0 baffle edges out of 23932 edges.
Initially selected 1472 points out of 12292 for reverse attraction.
Selected 3740 points out of 12292 for reverse attraction.
Stringing feature edges : changed 4 points
Stringing feature edges : changed 0 points
Attraction:
     linear   : max:(0 -0.0001014012 0.15131091) avg:(-2.3686143e-06 -0.00010888148 0.0061999837)
     feature  : max:(-0.0020959914 0.011354658 0.15131091) avg:(3.343333e-07 5.0220986e-05 0.0064264243)
Feature analysis : total master points:12292 attraction to :
    feature point   : 44
    feature edge    : 1428
    nearest surface : 0
    rest            : 10820

--> FOAM Warning : Displacement (1.2896881e-06 0.00059845209 1.2035678e-05) at mesh point 69 coord (109.63207 215.04015 5.8491924) points through the surrounding patch faces
Smoothing displacement ...
Iteration 0
Iteration 10
Iteration 20
Iteration 30
Iteration 40
Iteration 50
Iteration 60
[...]
Added 28017 out of 33573 cells (83.450987%).


Layer addition iteration 1
--------------------------

Determining displacement for added points according to pointNormal ...
Detected 0 points with point normal pointing through faces.
Reset displacement at 0 points to average of surrounding points.

displacementMedialAxis : Smoothing using Medial Axis ...
displacementMedialAxis : Reducing layer thickness at 1670 nodes where thickness to medial axis distance is large 
displacementMedialAxis : Removing isolated regions ...
displacementMedialAxis : Number of isolated points extrusion stopped : 64
displacementMedialAxis : Smoothing field ...
    Iteration 0   residual 0.012366294
displacementMedialAxis : Moving mesh ...
displacementMedialAxis : Iteration 0
Moving mesh using displacement scaling : min:1  max:1
Checking faces in error :
    non-orthogonality > 65  degrees                        : 0
    faces with face pyramid volume < 1e-13                 : 0
    faces with concavity > 80  degrees                     : 0
    faces with skewness > 4   (internal) or 4   (boundary) : 0
    faces with interpolation weights (0..1)  < 0.05        : 0
    faces with volume ratio of neighbour cells < 0.01      : 0
    faces on cells with determinant < 0.001                : 0
displacementMedialAxis : Successfully moved mesh
displacementMedialAxis : Finished moving mesh ...
truncateDisplacement : Unextruded 0 faces due to non-consecutive vertices being extruded.
truncateDisplacement : Unextruded 0 faces due to stringed edges with inconsistent extrusion.

Setting up information for layer truncation ...

Checking mesh with layer ...
Checking faces in error :
    non-orthogonality > 65  degrees                        : 0
    faces with face pyramid volume < 1e-13                 : 0
    faces with concavity > 80  degrees                     : 0
    faces with skewness > 4   (internal) or 4   (boundary) : 0
    faces with interpolation weights (0..1)  < 0.05        : 0
    faces with volume ratio of neighbour cells < 0.01      : 0
    faces on cells with determinant < 0.001                : 0
Detected 0 illegal faces (concave, zero area or negative cell pyramid volume)
Extruding 9642 out of 11191 faces (86.15852%). Removed extrusion at 0 faces.
Added 22468 out of 33573 cells (66.922825%).
Edge intersection testing:
    Number of edges             : 341850
    Number of edges to retest   : 0
    Number of intersected edges : 40895
Writing 22468 added cells to cellSet addedCells
Writing 12826 faces inside added layer to faceSet layerFaces

Writing fields with layer information:
    nSurfaceLayers    : actual number of layers
    thickness         : overall layer thickness
    thicknessFraction : overall layer thickness (fraction of desired thickness)


patch faces    layers   overall thickness
                        [m]       [%]
----- -----    ------   ---       ---
tower 11191    2.01     0.29      56.1    

Layer mesh : cells:103862  faces:341850  points:136490
Cells per refinement level:
    0	0
    1	0
    2	494
    3	3516
    4	23480
    5	76372
Writing mesh to time constant
Wrote mesh in = 4.48 s.
Layers added in = 4.48 s.
Checking final mesh ...
Checking faces in error :
    non-orthogonality > 65  degrees                        : 0
    faces with face pyramid volume < 1e-13                 : 0
    faces with concavity > 80  degrees                     : 0
    faces with skewness > 4   (internal) or 4   (boundary) : 0
    faces with interpolation weights (0..1)  < 0.05        : 0
    faces with volume ratio of neighbour cells < 0.01      : 0
    faces on cells with determinant < 0.001                : 0
Finished meshing without any errors
Finished meshing in = 57.374 s.
End

/*---------------------------------------------------------------------------*\
  =========                 |
  \\      /  F ield         | OpenFOAM: The Open Source CFD Toolbox
   \\    /   O peration     | Website:  https://openfoam.org
    \\  /    A nd           | Version:  8
     \\/     M anipulation  |
\*---------------------------------------------------------------------------*/
/*   Windows 32 and 64 bit porting by blueCAPE: http://www.bluecape.com.pt   *\
|  Based on Windows porting (2.0.x v4) by Symscape: http://www.symscape.com   |
\*---------------------------------------------------------------------------*/
Build  : 8-53cd1468e263
Exec   : createPatch -region vegetation -overwrite
Date   : Nov 13 2024
Time   : 09:42:21
Host   : "FOAM2"
PID    : 47020
I/O    : uncollated
Case   : C:/MetaFoam_Cases/CRVS_03
nProcs : 1
SigFpe : Enabling floating point exception trapping (FOAM_SIGFPE).
fileModificationChecking : Monitoring run-time modified files using timeStampMaster (fileModificationSkew 10)
allowSystemOperations : Allowing user-supplied system call operations

// * * * * * * * * * * * * * * * * * * * * * * * * * * * * * * * * * * * * * //
Create time

Create polyMesh vegetation for time = 0

Reading createPatchDict

Adding new patch air_to_vegetation as patch 8 from 
{
    type            wall;
}


Moving faces from patch vegetation to patch 8

Doing topology modification to order faces.

Not synchronising points.

Removing patches with no faces in them.

Removing zero-sized patch vegetation type wall at position 6
Removing patches.
Writing repatched mesh to 0

End

/*---------------------------------------------------------------------------*\
  =========                 |
  \\      /  F ield         | OpenFOAM: The Open Source CFD Toolbox
   \\    /   O peration     | Website:  https://openfoam.org
    \\  /    A nd           | Version:  8
     \\/     M anipulation  |
\*---------------------------------------------------------------------------*/
/*   Windows 32 and 64 bit porting by blueCAPE: http://www.bluecape.com.pt   *\
|  Based on Windows porting (2.0.x v4) by Symscape: http://www.symscape.com   |
\*---------------------------------------------------------------------------*/
Build  : 8-53cd1468e263
Exec   : changeDictionary -region vegetation
Date   : Nov 13 2024
Time   : 09:42:25
Host   : "FOAM2"
PID    : 32924
I/O    : uncollated
Case   : C:/MetaFoam_Cases/CRVS_03
nProcs : 1
SigFpe : Enabling floating point exception trapping (FOAM_SIGFPE).
fileModificationChecking : Monitoring run-time modified files using timeStampMaster (fileModificationSkew 10)
allowSystemOperations : Allowing user-supplied system call operations

// * * * * * * * * * * * * * * * * * * * * * * * * * * * * * * * * * * * * * //
--> FOAM Warning : 
changeDictionary has been superseded by foamDictionary and is now deprecated.

Create time

Create mesh vegetation for time = 0

Read dictionary changeDictionaryDict with replacements for dictionaries 1(boundary)
Reading polyMesh/boundary file to extract patch names
Loaded dictionary boundary with entries 
8
(
left
right
back
front
bottom
top
tower
air_to_vegetation
)

Extracted patch groups:
    group wall with patches 
3
(
bottom
tower
air_to_vegetation
)

Replacing entries in dictionary boundary
Special handling of boundary as polyMesh/boundary file.
Merging entries from 
8
(
left
right
back
front
bottom
top
air_to_vegetation
tower
)

fieldDict:
{
    left
    {
        type            mappedPatch;
        nFaces          172;
        startFace       317062;
        sampleMode      nearestPatchFace;
        sampleRegion    air;
        samplePatch     left;
        offsetMode      uniform;
        offset          ( 0 0 0 );
    }
    right
    {
        type            mappedPatch;
        nFaces          172;
        startFace       317234;
        sampleMode      nearestPatchFace;
        sampleRegion    air;
        samplePatch     right;
        offsetMode      uniform;
        offset          ( 0 0 0 );
    }
    back
    {
        type            mappedPatch;
        nFaces          96;
        startFace       317406;
        sampleMode      nearestPatchFace;
        sampleRegion    air;
        samplePatch     back;
        offsetMode      uniform;
        offset          ( 0 0 0 );
    }
    front
    {
        type            mappedPatch;
        nFaces          96;
        startFace       317502;
        sampleMode      nearestPatchFace;
        sampleRegion    air;
        samplePatch     front;
        offsetMode      uniform;
        offset          ( 0 0 0 );
    }
    bottom
    {
        type            mappedWall;
        inGroups        List<word> 0();
        nFaces          4470;
        startFace       317598;
        sampleMode      nearestPatchFace;
        sampleRegion    air;
        samplePatch     bottom;
        offsetMode      uniform;
        offset          ( 0 0 0 );
    }
    top
    {
        type            mappedPatch;
        nFaces          1365;
        startFace       322068;
        sampleMode      nearestPatchFace;
        sampleRegion    air;
        samplePatch     top;
        offsetMode      uniform;
        offset          ( 0 0 0 );
    }
    tower
    {
        type            mappedWall;
        inGroups        List<word> 0();
        nFaces          11191;
        startFace       323433;
        sampleMode      nearestPatchFace;
        sampleRegion    air;
        samplePatch     tower;
        offsetMode      uniform;
        offset          ( 0 0 0 );
    }
    air_to_vegetation
    {
        type            mappedWall;
        inGroups        List<word> 0();
        nFaces          7226;
        startFace       334624;
        sampleMode      nearestCell;
        sampleRegion    air;
        offsetMode      uniform;
        offset          ( 0 0 0 );
    }
}

Writing modified boundary

End

/*---------------------------------------------------------------------------*\
  =========                 |
  \\      /  F ield         | OpenFOAM: The Open Source CFD Toolbox
   \\    /   O peration     | Website:  https://openfoam.org
    \\  /    A nd           | Version:  8
     \\/     M anipulation  |
\*---------------------------------------------------------------------------*/
/*   Windows 32 and 64 bit porting by blueCAPE: http://www.bluecape.com.pt   *\
|  Based on Windows porting (2.0.x v4) by Symscape: http://www.symscape.com   |
\*---------------------------------------------------------------------------*/
Build  : 8-53cd1468e263
Exec   : extrudeMesh
Date   : Nov 13 2024
Time   : 09:42:26
Host   : "FOAM2"
PID    : 41268
I/O    : uncollated
Case   : C:/MetaFoam_Cases/CRVS_03
nProcs : 1
SigFpe : Enabling floating point exception trapping (FOAM_SIGFPE).
fileModificationChecking : Monitoring run-time modified files using timeStampMaster (fileModificationSkew 10)
allowSystemOperations : Allowing user-supplied system call operations

// * * * * * * * * * * * * * * * * * * * * * * * * * * * * * * * * * * * * * //
Create time

Create mesh for time = 0

Selecting extrudeModel linearNormal
Extruding from surface using model linearNormal
Flipping normals before extruding
Not collapsing any edges after extrusion

Extruding surfaceMesh read from file "constant/triSurface/tower.stl.gz"

Flipping faces.

Extruding surface with :
    points     : 17498
    faces      : 34976
    normals[0] : (0 1 0)

Mesh bounding box : (105 165.97946 -4.2295788e-11) (121 215.04108 8.4970465)
        with span : (16 49.061615 8.4970465)
Merge distance    : 0

Writing mesh to "constant/region0"

End

/*---------------------------------------------------------------------------*\
  =========                 |
  \\      /  F ield         | OpenFOAM: The Open Source CFD Toolbox
   \\    /   O peration     | Website:  https://openfoam.org
    \\  /    A nd           | Version:  8
     \\/     M anipulation  |
\*---------------------------------------------------------------------------*/
/*   Windows 32 and 64 bit porting by blueCAPE: http://www.bluecape.com.pt   *\
|  Based on Windows porting (2.0.x v4) by Symscape: http://www.symscape.com   |
\*---------------------------------------------------------------------------*/
Build  : 8-53cd1468e263
Exec   : createPatch -region tower -overwrite
Date   : Nov 13 2024
Time   : 09:42:32
Host   : "FOAM2"
PID    : 39948
I/O    : uncollated
Case   : C:/MetaFoam_Cases/CRVS_03
nProcs : 1
SigFpe : Enabling floating point exception trapping (FOAM_SIGFPE).
fileModificationChecking : Monitoring run-time modified files using timeStampMaster (fileModificationSkew 10)
allowSystemOperations : Allowing user-supplied system call operations

// * * * * * * * * * * * * * * * * * * * * * * * * * * * * * * * * * * * * * //
Create time

Create polyMesh tower for time = 0

Reading createPatchDict

Adding new patch buildings_to_air as patch 3 from 
{
    type            patch;
}

Adding new patch interior as patch 4 from 
{
    type            patch;
}


Moving faces from patch originalPatch to patch 3
Moving faces from patch otherSide to patch 4

Doing topology modification to order faces.

Not synchronising points.

Removing patches with no faces in them.

Removing zero-sized patch sides type wall at position 0
Removing zero-sized patch originalPatch type patch at position 1
Removing zero-sized patch otherSide type patch at position 2
Removing patches.
Writing repatched mesh to 0

End

/*---------------------------------------------------------------------------*\
  =========                 |
  \\      /  F ield         | OpenFOAM: The Open Source CFD Toolbox
   \\    /   O peration     | Website:  https://openfoam.org
    \\  /    A nd           | Version:  8
     \\/     M anipulation  |
\*---------------------------------------------------------------------------*/
/*   Windows 32 and 64 bit porting by blueCAPE: http://www.bluecape.com.pt   *\
|  Based on Windows porting (2.0.x v4) by Symscape: http://www.symscape.com   |
\*---------------------------------------------------------------------------*/
Build  : 8-53cd1468e263
Exec   : changeDictionary -region tower
Date   : Nov 13 2024
Time   : 09:42:39
Host   : "FOAM2"
PID    : 45880
I/O    : uncollated
Case   : C:/MetaFoam_Cases/CRVS_03
nProcs : 1
SigFpe : Enabling floating point exception trapping (FOAM_SIGFPE).
fileModificationChecking : Monitoring run-time modified files using timeStampMaster (fileModificationSkew 10)
allowSystemOperations : Allowing user-supplied system call operations

// * * * * * * * * * * * * * * * * * * * * * * * * * * * * * * * * * * * * * //
--> FOAM Warning : 
changeDictionary has been superseded by foamDictionary and is now deprecated.

Create time

Create mesh tower for time = 0

Read dictionary changeDictionaryDict with replacements for dictionaries 1(boundary)
Reading polyMesh/boundary file to extract patch names
Loaded dictionary boundary with entries 
2
(
buildings_to_air
interior
)

Replacing entries in dictionary boundary
Special handling of boundary as polyMesh/boundary file.
Merging entries from 1(buildings_to_air)
fieldDict:
{
    buildings_to_air
    {
        type            mappedWall;
        nFaces          34976;
        startFace       839424;
        sampleMode      nearestPatchFace;
        sampleRegion    air;
        samplePatch     tower;
        offsetMode      uniform;
        offset          ( 0 0 0 );
    }
    interior
    {
        type            patch;
        nFaces          34976;
        startFace       874400;
    }
}

Writing modified boundary

End

/*---------------------------------------------------------------------------*\
  =========                 |
  \\      /  F ield         | OpenFOAM: The Open Source CFD Toolbox
   \\    /   O peration     | Website:  https://openfoam.org
    \\  /    A nd           | Version:  8
     \\/     M anipulation  |
\*---------------------------------------------------------------------------*/
/*   Windows 32 and 64 bit porting by blueCAPE: http://www.bluecape.com.pt   *\
|  Based on Windows porting (2.0.x v4) by Symscape: http://www.symscape.com   |
\*---------------------------------------------------------------------------*/
Build  : 8-53cd1468e263
Exec   : topoSet -region tower
Date   : Nov 13 2024
Time   : 09:42:40
Host   : "FOAM2"
PID    : 43416
I/O    : uncollated
Case   : C:/MetaFoam_Cases/CRVS_03
nProcs : 1
SigFpe : Enabling floating point exception trapping (FOAM_SIGFPE).
fileModificationChecking : Monitoring run-time modified files using timeStampMaster (fileModificationSkew 10)
allowSystemOperations : Allowing user-supplied system call operations

// * * * * * * * * * * * * * * * * * * * * * * * * * * * * * * * * * * * * * //
Create time

Create polyMesh tower for time = 0

Reading topoSetDict

Time = 0
    mesh not changed.
Created cellSet tower
    Applying source rotatedBoxToCell
    Adding cells with center within rotated box 
    cellSet tower now size 349760
Created cellZoneSet tower
    Applying source setToCellZone
    Adding all cells from cellSet tower ...
    cellZoneSet tower now size 349760
End

/*---------------------------------------------------------------------------*\
  =========                 |
  \\      /  F ield         | OpenFOAM: The Open Source CFD Toolbox
   \\    /   O peration     | Website:  https://openfoam.org
    \\  /    A nd           | Version:  8
     \\/     M anipulation  |
\*---------------------------------------------------------------------------*/
/*   Windows 32 and 64 bit porting by blueCAPE: http://www.bluecape.com.pt   *\
|  Based on Windows porting (2.0.x v4) by Symscape: http://www.symscape.com   |
\*---------------------------------------------------------------------------*/
Build  : 8-53cd1468e263
Exec   : topoSet -region air
Date   : Nov 13 2024
Time   : 09:42:43
Host   : "FOAM2"
PID    : 5172
I/O    : uncollated
Case   : C:/MetaFoam_Cases/CRVS_03
nProcs : 1
SigFpe : Enabling floating point exception trapping (FOAM_SIGFPE).
fileModificationChecking : Monitoring run-time modified files using timeStampMaster (fileModificationSkew 10)
allowSystemOperations : Allowing user-supplied system call operations

// * * * * * * * * * * * * * * * * * * * * * * * * * * * * * * * * * * * * * //
Create time

Create polyMesh air for time = 0

Reading topoSetDict

Time = 0
    mesh not changed.
Created cellSet vegetation
    Applying source surfaceToCell
    Adding cells in relation to surface "constant/triSurface/vegetation.stl" ...
    Marked inside/outside using surface intersection in = 1.406 s

    cellSet vegetation now size 25102
Created cellZoneSet vegetation
    Applying source setToCellZone
    Adding all cells from cellSet vegetation ...
    cellZoneSet vegetation now size 25102
End

/*---------------------------------------------------------------------------*\
  =========                 |
  \\      /  F ield         | OpenFOAM: The Open Source CFD Toolbox
   \\    /   O peration     | Website:  https://openfoam.org
    \\  /    A nd           | Version:  8
     \\/     M anipulation  |
\*---------------------------------------------------------------------------*/
/*   Windows 32 and 64 bit porting by blueCAPE: http://www.bluecape.com.pt   *\
|  Based on Windows porting (2.0.x v4) by Symscape: http://www.symscape.com   |
\*---------------------------------------------------------------------------*/
Build  : 8-53cd1468e263
Exec   : setFields -region air
Date   : Nov 13 2024
Time   : 09:42:45
Host   : "FOAM2"
PID    : 43516
I/O    : uncollated
Case   : C:/MetaFoam_Cases/CRVS_03
nProcs : 1
SigFpe : Enabling floating point exception trapping (FOAM_SIGFPE).
fileModificationChecking : Monitoring run-time modified files using timeStampMaster (fileModificationSkew 10)
allowSystemOperations : Allowing user-supplied system call operations

// * * * * * * * * * * * * * * * * * * * * * * * * * * * * * * * * * * * * * //
Create time

Create mesh air for time = 0

Reading setFieldsDict

Setting field default values
    Setting internal values of volScalarField LAD

Setting field region values
    Adding all cells of cellZone vegetation ...
    Found matching zone vegetation with 25102 cells.
    Setting internal values of volScalarField LAD

End

