/*---------------------------------------------------------------------------*\
  =========                 |
  \\      /  F ield         | OpenFOAM: The Open Source CFD Toolbox
   \\    /   O peration     | Website:  https://openfoam.org
    \\  /    A nd           | Version:  8
     \\/     M anipulation  |
\*---------------------------------------------------------------------------*/
/*   Windows 32 and 64 bit porting by blueCAPE: http://www.bluecape.com.pt   *\
|  Based on Windows porting (2.0.x v4) by Symscape: http://www.symscape.com   |
\*---------------------------------------------------------------------------*/
Build  : 8-53cd1468e263
Exec   : solarRayTracingGen -region vegetation -parallel
Date   : Nov 13 2024
Time   : 09:44:21
Host   : "FOAM2"
PID    : 44520
I/O    : uncollated
Case   : C:/MetaFoam_Cases/CRVS_03
nProcs : 20
Slaves : 
19
(
"FOAM2.39064"
"FOAM2.44528"
"FOAM2.44548"
"FOAM2.44416"
"FOAM2.44064"
"FOAM2.40408"
"FOAM2.21276"
"FOAM2.40868"
"FOAM2.21748"
"FOAM2.44000"
"FOAM2.30732"
"FOAM2.37376"
"FOAM2.10532"
"FOAM2.34956"
"FOAM2.40488"
"FOAM2.12376"
"FOAM2.28748"
"FOAM2.36236"
"FOAM2.39388"
)

Pstream initialized with:
    floatTransfer      : 0
    nProcsSimpleSum    : 0
    commsType          : nonBlocking
    polling iterations : 0
SigFpe : Enabling floating point exception trapping (FOAM_SIGFPE).
fileModificationChecking : Monitoring run-time modified files using timeStampMaster (fileModificationSkew 10)
allowSystemOperations : Allowing user-supplied system call operations

// * * * * * * * * * * * * * * * * * * * * * * * * * * * * * * * * * * * * * //
Create time

Create mesh vegetation for time = 0


Creating single cell mesh...
[16] 
Created single cell mesh...
[15] 
Created single cell mesh...
[2] 
Created single cell mesh...
[9] 
Created single cell mesh...
[10] 
Created single cell mesh...
[17] 
Created single cell mesh...
[11] 
Created single cell mesh...
[3] 
Created single cell mesh...
[1] 
Created single cell mesh...
[14] 
Created single cell mesh...
[13] 
Created single cell mesh...
[8] 
Created single cell mesh...
[18] 
Created single cell mesh...
[7] 
Created single cell mesh...
[19] 
Created single cell mesh...
[6] 
Created single cell mesh...
[5] 
Created single cell mesh...
[0] 
Created single cell mesh...
[12] 
Created single cell mesh...
[4] 
Created single cell mesh...
howManyCoarseFacesPerPatch: 
14
(
2
0
0
0
15
7
948
0
0
0
0
0
0
0
)

howManyFineFacesPerPatch: 
14
(
61
0
0
0
72
157
948
0
0
0
0
0
0
0
)


Total number of coarse faces: 12280
[0] 
View factor patches included in the calculation : 2(4 6)
nVisibleFaceFacesList: 
5
(
963{0}
963{0}
963{0}
963{0}
963{0}
)

nVisibleFaceFacesListFINE: 
5
(

1020
(
1
1
1
1
1
1
1
1
1
0
0
1
1
0
0
0
0
1
0
0
0
1
1
1
1
1
1
0
0
1
1
0
0
1
1
1
0
0
1
1
1
1
1
1
1
1
1
1
1
1
0
0
1
1
1
1
1
1
0
0
0
0
0
0
0
0
0
0
0
0
0
0
0
0
0
0
0
0
0
0
0
0
0
0
0
0
0
0
0
0
0
0
0
0
0
0
0
0
0
0
0
0
0
0
0
0
0
0
0
0
0
0
0
0
0
0
0
0
0
0
0
0
0
0
0
0
0
0
0
0
0
0
0
0
0
0
0
0
0
0
0
0
0
0
0
0
0
0
0
0
0
0
0
0
0
0
1
1
0
1
1
1
1
1
1
1
1
1
0
1
1
1
1
1
1
1
1
1
1
1
1
1
0
0
0
1
1
1
1
1
1
1
1
1
1
1
1
1
1
1
1
1
1
1
1
1
1
1
1
1
1
1
1
0
0
0
1
0
0
1
0
0
1
0
0
1
0
1
1
1
1
1
0
1
0
1
0
0
1
1
1
1
0
0
0
1
1
1
1
0
0
0
1
1
1
1
1
1
1
1
1
1
1
1
1
1
1
1
1
1
0
0
0
0
0
0
0
0
0
0
0
0
1
1
1
1
1
1
1
0
0
1
1
1
1
1
1
1
1
1
1
1
1
1
1
1
1
1
1
1
1
1
1
1
1
1
1
1
1
1
1
1
0
0
1
0
0
1
0
0
0
0
1
0
0
1
0
0
0
0
1
0
0
0
0
1
0
0
1
0
0
0
0
1
0
0
0
1
0
0
1
0
0
1
0
0
0
0
0
1
1
1
1
1
1
1
1
1
0
1
0
0
0
0
0
0
0
1
1
1
0
0
0
0
0
0
0
0
0
0
0
1
1
1
0
1
1
1
0
1
1
1
0
1
1
1
0
1
1
1
0
1
1
1
0
1
1
1
0
1
1
1
0
1
1
1
0
1
1
1
0
1
1
1
0
0
0
0
0
0
0
0
0
0
0
0
0
0
0
0
0
0
0
0
0
0
0
0
0
0
0
0
0
0
0
0
0
0
1
0
0
1
1
1
1
1
1
1
1
0
0
0
0
0
0
0
0
0
0
1
1
1
1
0
0
0
0
0
0
0
0
0
0
0
0
0
1
1
1
1
1
1
1
1
1
1
0
0
0
0
0
0
1
1
1
1
1
1
1
1
1
1
1
1
1
1
1
1
1
1
1
1
1
1
1
1
1
1
1
1
1
0
0
0
0
0
0
0
0
0
1
1
1
1
1
1
1
1
1
1
1
1
0
0
0
0
0
0
0
0
0
0
0
0
0
0
0
1
1
1
1
1
1
1
1
1
1
1
1
1
1
1
1
1
1
0
0
0
0
1
1
1
1
1
1
0
0
0
0
1
1
1
1
1
1
1
1
1
1
1
1
1
1
1
1
1
1
1
1
1
1
1
1
1
1
1
1
1
1
1
1
1
1
1
1
1
1
1
1
1
1
1
1
1
1
1
1
1
1
1
1
0
0
0
0
0
0
0
0
0
0
0
0
0
0
0
0
0
0
0
0
0
0
0
0
0
0
0
0
0
0
0
0
0
0
0
0
0
0
0
0
0
0
0
0
0
0
0
0
0
0
0
0
0
0
0
1
1
1
0
0
0
0
0
0
0
0
1
1
1
1
1
0
1
0
1
0
0
0
1
0
1
0
0
0
1
0
0
1
0
0
1
0
0
1
0
0
1
0
0
1
0
1
0
0
0
0
0
0
0
0
0
0
0
0
0
1
0
0
0
0
0
0
0
0
0
1
0
1
0
1
0
1
0
1
0
1
0
1
0
1
0
1
0
1
0
1
0
0
0
0
0
0
0
0
0
0
0
0
0
0
0
0
0
0
0
0
0
0
0
0
1
1
1
1
0
0
0
0
0
1
1
0
0
0
0
0
0
0
0
0
0
0
0
0
0
0
0
0
0
0
0
0
0
0
0
0
0
0
1
1
1
1
1
0
0
0
0
0
0
0
0
0
0
0
0
1
1
1
1
1
1
1
1
1
1
1
1
1
1
1
1
1
1
1
1
0
0
0
0
0
0
0
0
1
1
1
1
1
1
1
1
1
0
0
0
0
0
0
0
0
0
0
0
0
0
1
1
1
0
0
0
0
0
0
0
0
0
0
0
0
0
0
1
1
1
1
1
1
1
1
1
1
1
1
1
1
1
1
1
1
1
1
1
1
1
1
1
1
0
0
0
0
0
0
0
0
0
0
0
0
0
0
0
0
0
0
0
0
0
)


1020
(
1
1
1
0
0
1
0
0
0
0
0
1
0
0
0
0
0
0
0
0
0
1
1
1
0
0
1
0
0
1
0
0
0
1
0
0
0
0
0
0
0
0
0
0
1
1
1
0
0
0
0
0
0
0
0
0
0
0
0
0
0
0
0
0
0
0
0
0
0
0
0
0
0
0
0
0
0
0
0
0
0
0
0
0
0
0
0
0
0
0
0
0
0
0
0
0
0
0
0
0
0
0
0
0
0
0
0
0
0
0
0
0
0
0
0
0
0
0
0
0
0
0
0
0
0
0
0
0
0
0
0
0
0
0
0
0
0
0
0
0
0
0
0
0
0
0
0
0
0
0
0
0
0
0
0
0
1
1
0
1
1
1
1
1
1
1
1
1
0
1
1
1
1
1
1
1
1
1
1
1
1
1
0
0
0
1
1
1
1
1
1
1
1
1
1
1
1
1
1
1
1
1
1
1
1
1
1
1
1
1
1
1
1
0
0
0
1
0
0
1
0
0
1
0
0
1
0
1
1
1
1
1
0
1
0
1
0
0
1
1
1
1
0
0
0
1
1
1
1
0
0
0
1
1
1
1
1
1
1
1
1
1
1
1
1
1
1
1
1
1
0
0
0
0
0
0
0
0
0
0
0
0
1
1
1
1
1
1
1
0
0
1
1
1
1
1
1
1
1
1
1
1
1
1
1
1
1
1
1
1
1
1
1
1
1
1
1
1
1
1
1
1
0
0
1
0
0
1
0
0
0
0
1
0
0
1
0
0
0
0
1
0
0
0
0
1
0
0
1
0
0
0
0
1
0
0
0
1
0
0
1
0
0
1
0
0
0
0
0
1
1
1
1
1
1
1
1
1
0
1
0
0
0
0
0
0
0
1
1
1
0
0
0
0
0
0
0
0
0
0
0
1
1
1
0
1
1
1
0
1
1
1
0
1
1
1
0
1
1
1
0
1
1
1
0
1
1
1
0
1
1
1
0
1
1
1
0
1
1
1
0
1
1
1
0
0
0
0
0
0
0
0
0
0
0
0
0
0
0
0
0
0
0
0
0
0
0
0
0
0
0
0
0
0
0
0
0
0
1
0
0
1
1
1
1
1
1
1
1
0
0
0
0
0
0
0
0
0
0
1
1
1
1
0
0
0
0
0
0
0
0
0
0
0
0
0
1
1
1
1
1
1
1
1
1
1
0
0
0
0
0
0
1
1
1
1
1
1
1
1
1
1
1
1
1
1
1
1
1
1
1
1
1
1
1
1
1
1
1
1
1
0
0
0
0
0
0
0
0
0
1
1
1
1
1
1
1
1
1
1
1
1
0
0
0
0
0
0
0
0
0
0
0
0
0
0
0
1
1
1
1
1
1
1
1
1
1
1
1
1
1
1
1
1
1
0
0
0
0
1
1
1
1
1
1
0
0
0
0
1
1
1
1
1
1
1
1
1
1
1
1
1
1
1
1
1
1
1
1
1
1
1
1
1
1
1
1
1
1
1
1
1
1
1
1
1
1
1
1
1
1
1
1
1
1
1
1
1
1
1
1
0
0
0
0
0
0
0
0
0
0
0
0
0
0
0
0
0
0
0
0
0
0
0
0
0
0
0
0
0
0
0
0
0
0
0
0
0
0
0
0
0
0
0
0
0
0
0
0
0
0
0
0
0
0
0
1
1
1
0
0
0
0
0
0
0
0
1
1
1
1
1
0
1
0
1
0
0
0
1
0
1
0
0
0
1
0
0
1
0
0
1
0
0
1
0
0
1
0
0
1
0
1
0
0
0
0
0
0
0
0
0
0
0
0
0
1
0
0
0
0
0
0
0
0
0
1
0
1
0
1
0
1
0
1
0
1
0
1
0
1
0
1
0
1
0
1
0
0
0
0
0
0
0
0
0
0
0
0
0
0
0
0
0
0
0
0
0
0
0
0
1
1
1
1
0
0
0
0
0
1
1
0
0
0
0
0
0
0
0
0
0
0
0
0
0
0
0
0
0
0
0
0
0
0
0
0
0
0
1
1
1
1
1
0
0
0
0
0
0
0
0
0
0
0
0
1
1
1
1
1
1
1
1
1
1
1
1
1
1
1
1
1
1
1
1
0
0
0
0
0
0
0
0
1
1
1
1
1
1
1
1
1
0
0
0
0
0
0
0
0
0
0
0
0
0
1
1
1
0
0
0
0
0
0
0
0
0
0
0
0
0
0
1
1
1
1
1
1
1
1
1
1
1
1
1
1
1
1
1
1
1
1
1
1
1
1
1
1
0
0
0
0
0
0
0
0
0
0
0
0
0
0
0
0
0
0
0
0
0
)


1020
(
1
0
0
0
0
1
0
0
0
0
0
0
0
0
0
0
0
0
0
0
0
0
0
1
0
0
0
0
0
0
0
0
0
0
0
0
0
0
0
0
0
0
0
0
0
0
1
0
0
0
0
0
0
0
0
0
0
0
0
0
0
0
0
0
0
0
0
0
0
0
0
0
0
0
0
0
0
0
0
0
0
0
0
0
0
0
0
0
0
0
0
0
0
0
0
0
0
0
0
0
0
0
0
0
0
0
0
0
0
0
0
0
0
0
0
0
0
0
0
0
0
0
0
0
0
0
0
0
0
0
0
0
0
0
0
0
0
0
0
0
0
0
0
0
0
0
0
0
0
0
0
0
0
0
0
0
1
1
0
1
1
1
1
1
1
1
1
1
0
1
1
1
1
1
1
1
1
1
1
1
1
1
0
0
0
1
1
1
1
1
1
1
1
1
1
1
1
1
1
1
1
1
1
1
1
1
1
1
1
1
1
1
1
0
0
0
1
0
0
1
0
0
1
0
0
1
0
1
1
1
1
1
0
1
0
1
0
0
1
1
1
1
0
0
0
1
1
1
1
0
0
0
1
1
1
1
1
1
1
1
1
1
1
1
1
1
1
1
1
1
0
0
0
0
0
0
0
0
0
0
0
0
1
1
1
1
1
1
1
0
0
1
1
1
1
1
1
1
1
1
1
1
1
1
1
1
1
1
1
1
1
1
1
1
1
1
1
1
1
1
1
1
0
0
1
0
0
1
0
0
0
0
1
0
0
1
0
0
0
0
1
0
0
0
0
1
0
0
1
0
0
0
0
1
0
0
0
1
0
0
1
0
0
1
0
0
0
0
0
1
1
1
1
1
1
1
1
1
0
1
0
0
0
0
0
0
0
1
1
1
0
0
0
0
0
0
0
0
0
0
0
1
1
1
0
1
1
1
0
1
1
1
0
1
1
1
0
1
1
1
0
1
1
1
0
1
1
1
0
1
1
1
0
1
1
1
0
1
1
1
0
1
1
1
0
0
0
0
0
0
0
0
0
0
0
0
0
0
0
0
0
0
0
0
0
0
0
0
0
0
0
0
0
0
0
0
0
0
1
0
0
1
1
1
1
1
1
1
1
0
0
0
0
0
0
0
0
0
0
1
1
1
1
0
0
0
0
0
0
0
0
0
0
0
0
0
1
1
1
1
1
1
1
1
1
1
0
0
0
0
0
0
1
1
1
1
1
1
1
1
1
1
1
1
1
1
1
1
1
1
1
1
1
1
1
1
1
1
1
1
1
0
0
0
0
0
0
0
0
0
1
1
1
1
1
1
1
1
1
1
1
1
0
0
0
0
0
0
0
0
0
0
0
0
0
0
0
1
1
1
1
1
1
1
1
1
1
1
1
1
1
1
1
1
1
0
0
0
0
1
1
1
1
1
1
0
0
0
0
1
1
1
1
1
1
1
1
1
1
1
1
1
1
1
1
1
1
1
1
1
1
1
1
1
1
1
1
1
1
1
1
1
1
1
1
1
1
1
1
1
1
1
1
1
1
1
1
1
1
1
1
0
0
0
0
0
0
0
0
0
0
0
0
0
0
0
0
0
0
0
0
0
0
0
0
0
0
0
0
0
0
0
0
0
0
0
0
0
0
0
0
0
0
0
0
0
0
0
0
0
0
0
0
0
0
0
1
1
1
0
0
0
0
0
0
0
0
1
1
1
1
1
0
1
0
1
0
0
0
1
0
1
0
0
0
1
0
0
1
0
0
1
0
0
1
0
0
1
0
0
1
0
1
0
0
0
0
0
0
0
0
0
0
0
0
0
1
0
0
0
0
0
0
0
0
0
1
0
1
0
1
0
1
0
1
0
1
0
1
0
1
0
1
0
1
0
1
0
0
0
0
0
0
0
0
0
0
0
0
0
0
0
0
0
0
0
0
0
0
0
0
1
1
1
1
0
0
0
0
0
1
1
0
0
0
0
0
0
0
0
0
0
0
0
0
0
0
0
0
0
0
0
0
0
0
0
0
0
0
1
1
1
1
1
0
0
0
0
0
0
0
0
0
0
0
0
1
1
1
1
1
1
1
1
1
1
1
1
1
1
1
1
1
1
1
1
0
0
0
0
0
0
0
0
1
1
1
1
1
1
1
1
1
0
0
0
0
0
0
0
0
0
0
0
0
0
1
1
1
0
0
0
0
0
0
0
0
0
0
0
0
0
0
1
1
1
1
1
1
1
1
1
1
1
1
1
1
1
1
1
1
1
1
1
1
1
1
1
1
0
0
0
0
0
0
0
0
0
0
0
0
0
0
0
0
0
0
0
0
0
)


1020
(
0
0
0
0
0
0
0
0
0
0
0
0
0
0
0
0
0
0
0
0
0
0
0
0
0
0
0
0
0
0
0
0
0
0
0
0
0
0
0
0
0
0
0
0
0
0
0
0
0
0
0
0
0
0
0
0
0
0
0
0
0
0
0
0
0
0
0
0
0
0
0
0
0
0
0
0
0
0
0
0
0
0
0
0
0
0
0
0
0
0
0
0
0
0
0
0
0
0
0
0
0
0
0
0
0
0
0
0
0
0
0
0
0
0
0
0
0
0
0
0
0
0
0
0
0
0
0
0
0
0
0
0
0
0
0
0
0
0
0
0
0
0
0
0
0
0
0
0
0
0
0
0
0
0
0
0
1
1
0
1
1
1
1
1
1
1
1
1
0
1
1
1
1
1
1
1
1
1
1
1
1
1
0
0
0
1
1
1
1
1
1
1
1
1
1
1
1
1
1
1
1
1
1
1
1
1
1
1
1
1
1
1
1
0
0
0
1
0
0
1
0
0
1
0
0
1
0
1
1
1
1
1
0
1
0
1
0
0
1
1
1
1
0
0
0
1
1
1
1
0
0
0
1
1
1
1
1
1
1
1
1
1
1
1
1
1
1
1
1
1
0
0
0
0
0
0
0
0
0
0
0
0
1
1
1
1
1
1
1
0
0
1
1
1
1
1
1
1
1
1
1
1
1
1
1
1
1
1
1
1
1
1
1
1
1
1
1
1
1
1
1
1
0
0
1
0
0
1
0
0
0
0
1
0
0
1
0
0
0
0
1
0
0
0
0
1
0
0
1
0
0
0
0
1
0
0
0
1
0
0
1
0
0
1
0
0
0
0
0
1
1
1
1
1
1
1
1
1
0
1
0
0
0
0
0
0
0
1
1
1
0
0
0
0
0
0
0
0
0
0
0
1
1
1
0
1
1
1
0
1
1
1
0
1
1
1
0
1
1
1
0
1
1
1
0
1
1
1
0
1
1
1
0
1
1
1
0
1
1
1
0
1
1
1
0
0
0
0
0
0
0
0
0
0
0
0
0
0
0
0
0
0
0
0
0
0
0
0
0
0
0
0
0
0
0
0
0
0
1
0
0
1
1
1
1
1
1
1
1
0
0
0
0
0
0
0
0
0
0
1
1
1
1
0
0
0
0
0
0
0
0
0
0
0
0
0
1
1
1
1
1
1
1
1
1
1
0
0
0
0
0
0
1
1
1
1
1
1
1
1
1
1
1
1
1
1
1
1
1
1
1
1
1
1
1
1
1
1
1
1
1
0
0
0
0
0
0
0
0
0
1
1
1
1
1
1
1
1
1
1
1
1
0
0
0
0
0
0
0
0
0
0
0
0
0
0
0
1
1
1
1
1
1
1
1
1
1
1
1
1
1
1
1
1
1
0
0
0
0
1
1
1
1
1
1
0
0
0
0
1
1
1
1
1
1
1
1
1
1
1
1
1
1
1
1
1
1
1
1
1
1
1
1
1
1
1
1
1
1
1
1
1
1
1
1
1
1
1
1
1
1
1
1
1
1
1
1
1
1
1
1
0
0
0
0
0
0
0
0
0
0
0
0
0
0
0
0
0
0
0
0
0
0
0
0
0
0
0
0
0
0
0
0
0
0
0
0
0
0
0
0
0
0
0
0
0
0
0
0
0
0
0
0
0
0
0
1
1
1
0
0
0
0
0
0
0
0
1
1
1
1
1
0
1
0
1
0
0
0
1
0
1
0
0
0
1
0
0
1
0
0
1
0
0
1
0
0
1
0
0
1
0
1
0
0
0
0
0
0
0
0
0
0
0
0
0
1
0
0
0
0
0
0
0
0
0
1
0
1
0
1
0
1
0
1
0
1
0
1
0
1
0
1
0
1
0
1
0
0
0
0
0
0
0
0
0
0
0
0
0
0
0
0
0
0
0
0
0
0
0
0
1
1
1
1
0
0
0
0
0
1
1
0
0
0
0
0
0
0
0
0
0
0
0
0
0
0
0
0
0
0
0
0
0
0
0
0
0
0
1
1
1
1
1
0
0
0
0
0
0
0
0
0
0
0
0
1
1
1
1
1
1
1
1
1
1
1
1
1
1
1
1
1
1
1
1
0
0
0
0
0
0
0
0
1
1
1
1
1
1
1
1
1
0
0
0
0
0
0
0
0
0
0
0
0
0
1
1
1
0
0
0
0
0
0
0
0
0
0
0
0
0
0
1
1
1
1
1
1
1
1
1
1
1
1
1
1
1
1
1
1
1
1
1
1
1
1
1
1
0
0
0
0
0
0
0
0
0
0
0
0
0
0
0
0
0
0
0
0
0
)


1020
(
0
0
0
0
0
0
0
0
0
0
0
0
0
0
0
0
0
0
0
0
0
0
0
0
0
0
0
0
0
0
0
0
0
0
0
0
0
0
0
0
0
0
0
0
0
0
0
0
0
0
0
0
0
0
0
0
0
0
0
0
0
0
0
0
0
0
0
0
0
0
0
0
0
0
0
0
0
0
0
0
0
0
0
0
0
0
0
0
0
0
0
0
0
0
0
0
0
0
0
0
0
0
0
0
0
0
0
0
0
0
0
0
0
0
0
0
0
0
0
0
0
0
0
0
0
0
0
0
0
0
0
0
0
0
0
0
0
0
0
0
0
0
0
0
0
0
0
0
0
0
0
0
0
0
0
0
1
1
0
1
1
1
1
1
1
1
1
1
0
1
1
1
1
1
1
1
1
1
1
1
1
1
0
0
0
1
1
1
1
1
1
1
1
1
1
1
1
1
1
1
1
1
1
1
1
1
1
1
1
1
1
1
1
1
1
1
1
1
1
1
1
1
1
1
1
1
1
1
1
1
1
1
1
1
1
1
1
1
1
1
1
1
0
0
0
1
1
1
1
1
1
1
1
1
1
1
1
1
1
1
1
1
1
1
1
1
1
1
1
1
1
1
1
1
1
1
1
1
1
1
1
1
1
1
1
1
1
1
1
1
1
1
1
1
1
1
1
1
1
1
1
1
1
1
1
1
1
1
1
1
1
1
1
1
1
1
1
1
1
1
1
1
1
1
1
1
1
1
1
1
1
1
1
1
1
1
1
1
1
1
1
1
1
1
1
1
1
1
1
1
1
1
1
1
1
1
1
1
1
1
1
1
1
1
1
1
1
1
1
1
1
1
1
1
1
1
1
1
0
1
1
0
1
1
1
1
0
1
1
1
0
0
0
0
0
0
0
1
0
1
0
1
1
1
0
1
1
1
0
1
1
1
0
1
1
1
0
1
1
1
0
1
1
1
0
1
1
1
0
1
1
1
0
1
1
1
0
1
1
1
0
1
1
1
0
0
0
0
0
0
0
0
0
0
0
0
0
0
0
0
0
0
0
0
0
0
0
0
0
0
0
0
0
0
0
0
0
0
1
0
0
1
1
1
1
1
1
1
1
0
0
0
0
0
0
0
0
0
0
1
1
1
1
0
0
0
0
0
0
0
0
0
0
0
0
0
1
1
1
1
1
1
1
1
1
1
0
0
0
0
0
0
1
1
1
1
1
1
1
1
1
1
1
1
1
1
1
1
1
1
1
1
1
1
1
1
1
1
1
1
1
0
0
0
0
0
0
0
0
0
1
1
1
1
1
1
1
1
1
1
1
1
1
1
1
1
1
1
1
1
1
1
1
1
1
1
1
1
1
1
1
1
1
1
1
1
1
1
1
1
1
1
1
1
1
0
0
0
0
1
1
1
1
1
1
0
0
0
0
1
1
1
1
1
1
1
1
1
1
1
1
1
1
1
1
1
1
1
1
1
1
1
1
1
1
1
1
1
1
1
1
1
1
1
1
1
1
1
1
1
1
1
1
1
1
1
1
1
1
1
1
0
0
0
0
0
0
0
0
0
0
0
0
0
0
0
0
0
0
0
0
0
0
0
0
0
0
0
0
0
0
0
0
0
0
0
0
0
0
0
0
0
0
0
0
0
0
0
0
0
0
0
0
0
0
0
1
1
1
1
1
1
1
1
1
1
1
1
1
1
1
1
1
1
1
1
1
1
1
1
1
1
1
1
1
1
1
1
1
1
1
1
1
1
1
1
1
1
1
1
1
1
1
1
1
1
1
0
0
0
0
0
0
1
1
0
1
0
0
0
0
0
0
0
0
0
1
0
1
0
1
0
1
0
1
0
1
0
1
0
1
0
1
0
1
0
1
0
0
0
0
0
0
0
0
0
0
0
0
0
0
0
0
0
0
0
0
0
0
0
0
1
1
1
1
0
0
0
0
0
1
1
0
0
0
0
0
0
0
0
0
0
0
0
0
0
0
0
0
0
0
0
0
0
0
0
0
0
0
1
1
1
1
1
0
0
0
0
0
0
0
0
0
0
0
0
1
1
1
1
1
1
1
1
1
1
1
1
1
1
1
1
1
1
1
1
1
1
1
1
1
1
1
1
1
1
1
1
1
1
1
1
1
0
0
0
0
0
0
0
0
0
0
0
0
0
1
1
1
0
0
0
0
0
0
0
0
0
0
0
0
0
0
1
1
1
1
1
1
1
1
1
1
1
1
1
1
1
1
1
1
1
1
1
1
1
1
1
1
0
0
0
0
0
0
0
0
0
0
0
0
0
0
0
0
0
0
0
0
0
)

)

sunViewCoeff: 
5
(

972
(
0
0
717.08284
717.08284
717.08284
717.08284
717.08284
717.08284
0
463.00278
445.91855
0
0
377.60085
0
0
717.08284
0
0
0
0
0
0
0
0
0
0
0
0
0
0
0
0
0
0
0
0
0
0
0
0
0
0
0
0
0
0
0
0
0
0
0
0
0
0
0
0
0
0
0
0
0
0
0
0
0
0
0
0
0
0
0
0
0
0
0
0
0
0
0
0
0
0
0
0
0
0
0
0
0
0
0
0
0
0
0
0
0
0
0
0
0
0
0
0
0
0
0
717.08284
717.08284
0
717.08284
717.08284
717.08284
717.08284
717.08284
717.08284
717.08284
717.08284
717.08284
0
717.08284
717.08284
717.08284
717.08284
717.08284
717.08284
717.08284
717.08284
717.08284
717.08284
717.08284
717.08284
717.08284
0
0
0
717.08284
717.08284
717.08284
717.08284
717.08284
717.08284
717.08284
717.08284
717.08284
717.08284
717.08284
717.08284
717.08284
717.08284
717.08284
717.08284
717.08284
717.08284
717.08284
717.08284
717.08284
717.08284
717.08284
717.08284
717.08284
717.08284
717.08284
717.08284
0
0
0
717.08284
0
0
717.08284
0
0
717.08284
0
0
717.08284
0
717.08284
717.08284
717.08284
717.08284
717.08284
0
717.08284
0
717.08284
0
0
717.08284
717.08284
717.08284
717.08284
0
0
0
717.08284
717.08284
717.08284
717.08284
0
0
0
717.08284
717.08284
717.08284
717.08284
717.08284
717.08284
717.08284
717.08284
717.08284
717.08284
717.08284
717.08284
717.08284
717.08284
717.08284
717.08284
717.08284
717.08284
0
0
0
0
0
0
0
0
0
0
0
0
717.08284
717.08284
717.08284
717.08284
717.08284
717.08284
717.08284
0
0
717.08284
717.08284
717.08284
717.08284
717.08284
717.08284
717.08284
717.08284
717.08284
717.08284
717.08284
717.08284
717.08284
717.08284
717.08284
717.08284
717.08284
717.08284
717.08284
717.08284
717.08284
717.08284
717.08284
717.08284
717.08284
717.08284
717.08284
717.08284
717.08284
717.08284
717.08284
0
0
717.08284
0
0
717.08284
0
0
0
0
717.08284
0
0
717.08284
0
0
0
0
717.08284
0
0
0
0
717.08284
0
0
717.08284
0
0
0
0
717.08284
0
0
0
717.08284
0
0
717.08284
0
0
717.08284
0
0
0
0
0
717.08284
717.08284
717.08284
717.08284
717.08284
717.08284
717.08284
717.08284
717.08284
0
717.08284
0
0
0
0
0
0
0
717.08284
717.08284
717.08284
0
0
0
0
0
0
0
0
0
0
0
717.08284
717.08284
717.08284
0
717.08284
717.08284
717.08284
0
717.08284
717.08284
717.08284
0
717.08284
717.08284
717.08284
0
717.08284
717.08284
717.08284
0
717.08284
717.08284
717.08284
0
717.08284
717.08284
717.08284
0
717.08284
717.08284
717.08284
0
717.08284
717.08284
717.08284
0
717.08284
717.08284
717.08284
0
717.08284
717.08284
717.08284
0
0
0
0
0
0
0
0
0
0
0
0
0
0
0
0
0
0
0
0
0
0
0
0
0
0
0
0
0
0
0
0
0
0
717.08284
0
0
717.08284
717.08284
717.08284
717.08284
717.08284
717.08284
717.08284
717.08284
0
0
0
0
0
0
0
0
0
0
717.08284
717.08284
717.08284
717.08284
0
0
0
0
0
0
0
0
0
0
0
0
0
717.08284
717.08284
717.08284
717.08284
717.08284
717.08284
717.08284
717.08284
717.08284
717.08284
0
0
0
0
0
0
717.08284
717.08284
717.08284
717.08284
717.08284
717.08284
717.08284
717.08284
717.08284
717.08284
717.08284
717.08284
717.08284
717.08284
717.08284
717.08284
717.08284
717.08284
717.08284
717.08284
717.08284
717.08284
717.08284
717.08284
717.08284
717.08284
717.08284
717.08284
717.08284
0
0
0
0
0
0
0
0
0
717.08284
717.08284
717.08284
717.08284
717.08284
717.08284
717.08284
717.08284
717.08284
717.08284
717.08284
717.08284
0
0
0
0
0
0
0
0
0
0
0
0
0
0
0
717.08284
717.08284
717.08284
717.08284
717.08284
717.08284
717.08284
717.08284
717.08284
717.08284
717.08284
717.08284
717.08284
717.08284
717.08284
717.08284
717.08284
717.08284
0
0
0
0
717.08284
717.08284
717.08284
717.08284
717.08284
717.08284
0
0
0
0
717.08284
717.08284
717.08284
717.08284
717.08284
717.08284
717.08284
717.08284
717.08284
717.08284
717.08284
717.08284
717.08284
717.08284
717.08284
717.08284
717.08284
717.08284
717.08284
717.08284
717.08284
717.08284
717.08284
717.08284
717.08284
717.08284
717.08284
717.08284
717.08284
717.08284
717.08284
717.08284
717.08284
717.08284
717.08284
717.08284
717.08284
717.08284
717.08284
717.08284
717.08284
717.08284
717.08284
717.08284
717.08284
717.08284
717.08284
717.08284
717.08284
717.08284
717.08284
717.08284
0
0
0
0
0
0
0
0
0
0
0
0
0
0
0
0
0
0
0
0
0
0
0
0
0
0
0
0
0
0
0
0
0
0
0
0
0
0
0
0
0
0
0
0
0
0
0
0
0
0
0
0
0
0
0
717.08284
717.08284
717.08284
0
0
0
0
0
0
0
0
717.08284
717.08284
717.08284
717.08284
717.08284
0
717.08284
0
717.08284
0
0
0
717.08284
0
717.08284
0
0
0
717.08284
0
0
717.08284
0
0
717.08284
0
0
717.08284
0
0
717.08284
0
0
717.08284
0
717.08284
0
0
0
0
0
0
0
0
0
0
0
0
0
717.08284
0
0
0
0
0
0
0
0
0
717.08284
0
717.08284
0
717.08284
0
717.08284
0
717.08284
0
717.08284
0
717.08284
0
717.08284
0
717.08284
0
717.08284
0
717.08284
0
0
0
0
0
0
0
0
0
0
0
0
0
0
0
0
0
0
0
0
0
0
0
0
717.08284
717.08284
717.08284
717.08284
0
0
0
0
0
717.08284
717.08284
0
0
0
0
0
0
0
0
0
0
0
0
0
0
0
0
0
0
0
0
0
0
0
0
0
0
0
717.08284
717.08284
717.08284
717.08284
717.08284
0
0
0
0
0
0
0
0
0
0
0
0
717.08284
717.08284
717.08284
717.08284
717.08284
717.08284
717.08284
717.08284
717.08284
717.08284
717.08284
717.08284
717.08284
717.08284
717.08284
717.08284
717.08284
717.08284
717.08284
717.08284
0
0
0
0
0
0
0
0
717.08284
717.08284
717.08284
717.08284
717.08284
717.08284
717.08284
717.08284
717.08284
0
0
0
0
0
0
0
0
0
0
0
0
0
717.08284
717.08284
717.08284
0
0
0
0
0
0
0
0
0
0
0
0
0
0
717.08284
717.08284
717.08284
717.08284
717.08284
717.08284
717.08284
717.08284
717.08284
717.08284
717.08284
717.08284
717.08284
717.08284
717.08284
717.08284
717.08284
717.08284
717.08284
717.08284
717.08284
717.08284
717.08284
717.08284
717.08284
717.08284
0
0
0
0
0
0
0
0
0
0
0
0
0
0
0
0
0
0
0
0
0
)


972
(
0
0
468.20177
585.76158
0
0
389.40509
0
0
126.35768
0
0
0
163.80579
0
0
0
0
0
0
0
0
0
0
0
0
0
0
0
0
0
0
0
0
0
0
0
0
0
0
0
0
0
0
0
0
0
0
0
0
0
0
0
0
0
0
0
0
0
0
0
0
0
0
0
0
0
0
0
0
0
0
0
0
0
0
0
0
0
0
0
0
0
0
0
0
0
0
0
0
0
0
0
0
0
0
0
0
0
0
0
0
0
0
0
0
0
0
585.76158
585.76158
0
585.76158
585.76158
585.76158
585.76158
585.76158
585.76158
585.76158
585.76158
585.76158
0
585.76158
585.76158
585.76158
585.76158
585.76158
585.76158
585.76158
585.76158
585.76158
585.76158
585.76158
585.76158
585.76158
0
0
0
585.76158
585.76158
585.76158
585.76158
585.76158
585.76158
585.76158
585.76158
585.76158
585.76158
585.76158
585.76158
585.76158
585.76158
585.76158
585.76158
585.76158
585.76158
585.76158
585.76158
585.76158
585.76158
585.76158
585.76158
585.76158
585.76158
585.76158
585.76158
0
0
0
585.76158
0
0
585.76158
0
0
585.76158
0
0
585.76158
0
585.76158
585.76158
585.76158
585.76158
585.76158
0
585.76158
0
585.76158
0
0
585.76158
585.76158
585.76158
585.76158
0
0
0
585.76158
585.76158
585.76158
585.76158
0
0
0
585.76158
585.76158
585.76158
585.76158
585.76158
585.76158
585.76158
585.76158
585.76158
585.76158
585.76158
585.76158
585.76158
585.76158
585.76158
585.76158
585.76158
585.76158
0
0
0
0
0
0
0
0
0
0
0
0
585.76158
585.76158
585.76158
585.76158
585.76158
585.76158
585.76158
0
0
585.76158
585.76158
585.76158
585.76158
585.76158
585.76158
585.76158
585.76158
585.76158
585.76158
585.76158
585.76158
585.76158
585.76158
585.76158
585.76158
585.76158
585.76158
585.76158
585.76158
585.76158
585.76158
585.76158
585.76158
585.76158
585.76158
585.76158
585.76158
585.76158
585.76158
585.76158
0
0
585.76158
0
0
585.76158
0
0
0
0
585.76158
0
0
585.76158
0
0
0
0
585.76158
0
0
0
0
585.76158
0
0
585.76158
0
0
0
0
585.76158
0
0
0
585.76158
0
0
585.76158
0
0
585.76158
0
0
0
0
0
585.76158
585.76158
585.76158
585.76158
585.76158
585.76158
585.76158
585.76158
585.76158
0
585.76158
0
0
0
0
0
0
0
585.76158
585.76158
585.76158
0
0
0
0
0
0
0
0
0
0
0
585.76158
585.76158
585.76158
0
585.76158
585.76158
585.76158
0
585.76158
585.76158
585.76158
0
585.76158
585.76158
585.76158
0
585.76158
585.76158
585.76158
0
585.76158
585.76158
585.76158
0
585.76158
585.76158
585.76158
0
585.76158
585.76158
585.76158
0
585.76158
585.76158
585.76158
0
585.76158
585.76158
585.76158
0
585.76158
585.76158
585.76158
0
0
0
0
0
0
0
0
0
0
0
0
0
0
0
0
0
0
0
0
0
0
0
0
0
0
0
0
0
0
0
0
0
0
585.76158
0
0
585.76158
585.76158
585.76158
585.76158
585.76158
585.76158
585.76158
585.76158
0
0
0
0
0
0
0
0
0
0
585.76158
585.76158
585.76158
585.76158
0
0
0
0
0
0
0
0
0
0
0
0
0
585.76158
585.76158
585.76158
585.76158
585.76158
585.76158
585.76158
585.76158
585.76158
585.76158
0
0
0
0
0
0
585.76158
585.76158
585.76158
585.76158
585.76158
585.76158
585.76158
585.76158
585.76158
585.76158
585.76158
585.76158
585.76158
585.76158
585.76158
585.76158
585.76158
585.76158
585.76158
585.76158
585.76158
585.76158
585.76158
585.76158
585.76158
585.76158
585.76158
585.76158
585.76158
0
0
0
0
0
0
0
0
0
585.76158
585.76158
585.76158
585.76158
585.76158
585.76158
585.76158
585.76158
585.76158
585.76158
585.76158
585.76158
0
0
0
0
0
0
0
0
0
0
0
0
0
0
0
585.76158
585.76158
585.76158
585.76158
585.76158
585.76158
585.76158
585.76158
585.76158
585.76158
585.76158
585.76158
585.76158
585.76158
585.76158
585.76158
585.76158
585.76158
0
0
0
0
585.76158
585.76158
585.76158
585.76158
585.76158
585.76158
0
0
0
0
585.76158
585.76158
585.76158
585.76158
585.76158
585.76158
585.76158
585.76158
585.76158
585.76158
585.76158
585.76158
585.76158
585.76158
585.76158
585.76158
585.76158
585.76158
585.76158
585.76158
585.76158
585.76158
585.76158
585.76158
585.76158
585.76158
585.76158
585.76158
585.76158
585.76158
585.76158
585.76158
585.76158
585.76158
585.76158
585.76158
585.76158
585.76158
585.76158
585.76158
585.76158
585.76158
585.76158
585.76158
585.76158
585.76158
585.76158
585.76158
585.76158
585.76158
585.76158
585.76158
0
0
0
0
0
0
0
0
0
0
0
0
0
0
0
0
0
0
0
0
0
0
0
0
0
0
0
0
0
0
0
0
0
0
0
0
0
0
0
0
0
0
0
0
0
0
0
0
0
0
0
0
0
0
0
585.76158
585.76158
585.76158
0
0
0
0
0
0
0
0
585.76158
585.76158
585.76158
585.76158
585.76158
0
585.76158
0
585.76158
0
0
0
585.76158
0
585.76158
0
0
0
585.76158
0
0
585.76158
0
0
585.76158
0
0
585.76158
0
0
585.76158
0
0
585.76158
0
585.76158
0
0
0
0
0
0
0
0
0
0
0
0
0
585.76158
0
0
0
0
0
0
0
0
0
585.76158
0
585.76158
0
585.76158
0
585.76158
0
585.76158
0
585.76158
0
585.76158
0
585.76158
0
585.76158
0
585.76158
0
585.76158
0
0
0
0
0
0
0
0
0
0
0
0
0
0
0
0
0
0
0
0
0
0
0
0
585.76158
585.76158
585.76158
585.76158
0
0
0
0
0
585.76158
585.76158
0
0
0
0
0
0
0
0
0
0
0
0
0
0
0
0
0
0
0
0
0
0
0
0
0
0
0
585.76158
585.76158
585.76158
585.76158
585.76158
0
0
0
0
0
0
0
0
0
0
0
0
585.76158
585.76158
585.76158
585.76158
585.76158
585.76158
585.76158
585.76158
585.76158
585.76158
585.76158
585.76158
585.76158
585.76158
585.76158
585.76158
585.76158
585.76158
585.76158
585.76158
0
0
0
0
0
0
0
0
585.76158
585.76158
585.76158
585.76158
585.76158
585.76158
585.76158
585.76158
585.76158
0
0
0
0
0
0
0
0
0
0
0
0
0
585.76158
585.76158
585.76158
0
0
0
0
0
0
0
0
0
0
0
0
0
0
585.76158
585.76158
585.76158
585.76158
585.76158
585.76158
585.76158
585.76158
585.76158
585.76158
585.76158
585.76158
585.76158
585.76158
585.76158
585.76158
585.76158
585.76158
585.76158
585.76158
585.76158
585.76158
585.76158
585.76158
585.76158
585.76158
0
0
0
0
0
0
0
0
0
0
0
0
0
0
0
0
0
0
0
0
0
)


972
(
0
0
213.53182
0
0
0
176.94788
0
0
0
0
0
0
0
0
0
0
0
0
0
0
0
0
0
0
0
0
0
0
0
0
0
0
0
0
0
0
0
0
0
0
0
0
0
0
0
0
0
0
0
0
0
0
0
0
0
0
0
0
0
0
0
0
0
0
0
0
0
0
0
0
0
0
0
0
0
0
0
0
0
0
0
0
0
0
0
0
0
0
0
0
0
0
0
0
0
0
0
0
0
0
0
0
0
0
0
0
0
536.2201
536.2201
0
536.2201
536.2201
536.2201
536.2201
536.2201
536.2201
536.2201
536.2201
536.2201
0
536.2201
536.2201
536.2201
536.2201
536.2201
536.2201
536.2201
536.2201
536.2201
536.2201
536.2201
536.2201
536.2201
0
0
0
536.2201
536.2201
536.2201
536.2201
536.2201
536.2201
536.2201
536.2201
536.2201
536.2201
536.2201
536.2201
536.2201
536.2201
536.2201
536.2201
536.2201
536.2201
536.2201
536.2201
536.2201
536.2201
536.2201
536.2201
536.2201
536.2201
536.2201
536.2201
0
0
0
536.2201
0
0
536.2201
0
0
536.2201
0
0
536.2201
0
536.2201
536.2201
536.2201
536.2201
536.2201
0
536.2201
0
536.2201
0
0
536.2201
536.2201
536.2201
536.2201
0
0
0
536.2201
536.2201
536.2201
536.2201
0
0
0
536.2201
536.2201
536.2201
536.2201
536.2201
536.2201
536.2201
536.2201
536.2201
536.2201
536.2201
536.2201
536.2201
536.2201
536.2201
536.2201
536.2201
536.2201
0
0
0
0
0
0
0
0
0
0
0
0
536.2201
536.2201
536.2201
536.2201
536.2201
536.2201
536.2201
0
0
536.2201
536.2201
536.2201
536.2201
536.2201
536.2201
536.2201
536.2201
536.2201
536.2201
536.2201
536.2201
536.2201
536.2201
536.2201
536.2201
536.2201
536.2201
536.2201
536.2201
536.2201
536.2201
536.2201
536.2201
536.2201
536.2201
536.2201
536.2201
536.2201
536.2201
536.2201
0
0
536.2201
0
0
536.2201
0
0
0
0
536.2201
0
0
536.2201
0
0
0
0
536.2201
0
0
0
0
536.2201
0
0
536.2201
0
0
0
0
536.2201
0
0
0
536.2201
0
0
536.2201
0
0
536.2201
0
0
0
0
0
536.2201
536.2201
536.2201
536.2201
536.2201
536.2201
536.2201
536.2201
536.2201
0
536.2201
0
0
0
0
0
0
0
536.2201
536.2201
536.2201
0
0
0
0
0
0
0
0
0
0
0
536.2201
536.2201
536.2201
0
536.2201
536.2201
536.2201
0
536.2201
536.2201
536.2201
0
536.2201
536.2201
536.2201
0
536.2201
536.2201
536.2201
0
536.2201
536.2201
536.2201
0
536.2201
536.2201
536.2201
0
536.2201
536.2201
536.2201
0
536.2201
536.2201
536.2201
0
536.2201
536.2201
536.2201
0
536.2201
536.2201
536.2201
0
0
0
0
0
0
0
0
0
0
0
0
0
0
0
0
0
0
0
0
0
0
0
0
0
0
0
0
0
0
0
0
0
0
536.2201
0
0
536.2201
536.2201
536.2201
536.2201
536.2201
536.2201
536.2201
536.2201
0
0
0
0
0
0
0
0
0
0
536.2201
536.2201
536.2201
536.2201
0
0
0
0
0
0
0
0
0
0
0
0
0
536.2201
536.2201
536.2201
536.2201
536.2201
536.2201
536.2201
536.2201
536.2201
536.2201
0
0
0
0
0
0
536.2201
536.2201
536.2201
536.2201
536.2201
536.2201
536.2201
536.2201
536.2201
536.2201
536.2201
536.2201
536.2201
536.2201
536.2201
536.2201
536.2201
536.2201
536.2201
536.2201
536.2201
536.2201
536.2201
536.2201
536.2201
536.2201
536.2201
536.2201
536.2201
0
0
0
0
0
0
0
0
0
536.2201
536.2201
536.2201
536.2201
536.2201
536.2201
536.2201
536.2201
536.2201
536.2201
536.2201
536.2201
0
0
0
0
0
0
0
0
0
0
0
0
0
0
0
536.2201
536.2201
536.2201
536.2201
536.2201
536.2201
536.2201
536.2201
536.2201
536.2201
536.2201
536.2201
536.2201
536.2201
536.2201
536.2201
536.2201
536.2201
0
0
0
0
536.2201
536.2201
536.2201
536.2201
536.2201
536.2201
0
0
0
0
536.2201
536.2201
536.2201
536.2201
536.2201
536.2201
536.2201
536.2201
536.2201
536.2201
536.2201
536.2201
536.2201
536.2201
536.2201
536.2201
536.2201
536.2201
536.2201
536.2201
536.2201
536.2201
536.2201
536.2201
536.2201
536.2201
536.2201
536.2201
536.2201
536.2201
536.2201
536.2201
536.2201
536.2201
536.2201
536.2201
536.2201
536.2201
536.2201
536.2201
536.2201
536.2201
536.2201
536.2201
536.2201
536.2201
536.2201
536.2201
536.2201
536.2201
536.2201
536.2201
0
0
0
0
0
0
0
0
0
0
0
0
0
0
0
0
0
0
0
0
0
0
0
0
0
0
0
0
0
0
0
0
0
0
0
0
0
0
0
0
0
0
0
0
0
0
0
0
0
0
0
0
0
0
0
536.2201
536.2201
536.2201
0
0
0
0
0
0
0
0
536.2201
536.2201
536.2201
536.2201
536.2201
0
536.2201
0
536.2201
0
0
0
536.2201
0
536.2201
0
0
0
536.2201
0
0
536.2201
0
0
536.2201
0
0
536.2201
0
0
536.2201
0
0
536.2201
0
536.2201
0
0
0
0
0
0
0
0
0
0
0
0
0
536.2201
0
0
0
0
0
0
0
0
0
536.2201
0
536.2201
0
536.2201
0
536.2201
0
536.2201
0
536.2201
0
536.2201
0
536.2201
0
536.2201
0
536.2201
0
536.2201
0
0
0
0
0
0
0
0
0
0
0
0
0
0
0
0
0
0
0
0
0
0
0
0
536.2201
536.2201
536.2201
536.2201
0
0
0
0
0
536.2201
536.2201
0
0
0
0
0
0
0
0
0
0
0
0
0
0
0
0
0
0
0
0
0
0
0
0
0
0
0
536.2201
536.2201
536.2201
536.2201
536.2201
0
0
0
0
0
0
0
0
0
0
0
0
536.2201
536.2201
536.2201
536.2201
536.2201
536.2201
536.2201
536.2201
536.2201
536.2201
536.2201
536.2201
536.2201
536.2201
536.2201
536.2201
536.2201
536.2201
536.2201
536.2201
0
0
0
0
0
0
0
0
536.2201
536.2201
536.2201
536.2201
536.2201
536.2201
536.2201
536.2201
536.2201
0
0
0
0
0
0
0
0
0
0
0
0
0
536.2201
536.2201
536.2201
0
0
0
0
0
0
0
0
0
0
0
0
0
0
536.2201
536.2201
536.2201
536.2201
536.2201
536.2201
536.2201
536.2201
536.2201
536.2201
536.2201
536.2201
536.2201
536.2201
536.2201
536.2201
536.2201
536.2201
536.2201
536.2201
536.2201
536.2201
536.2201
536.2201
536.2201
536.2201
0
0
0
0
0
0
0
0
0
0
0
0
0
0
0
0
0
0
0
0
0
)


972
(
0
0
0
0
0
0
0
0
0
0
0
0
0
0
0
0
0
0
0
0
0
0
0
0
0
0
0
0
0
0
0
0
0
0
0
0
0
0
0
0
0
0
0
0
0
0
0
0
0
0
0
0
0
0
0
0
0
0
0
0
0
0
0
0
0
0
0
0
0
0
0
0
0
0
0
0
0
0
0
0
0
0
0
0
0
0
0
0
0
0
0
0
0
0
0
0
0
0
0
0
0
0
0
0
0
0
0
0
411.8157
411.8157
0
411.8157
411.8157
411.8157
411.8157
411.8157
411.8157
411.8157
411.8157
411.8157
0
411.8157
411.8157
411.8157
411.8157
411.8157
411.8157
411.8157
411.8157
411.8157
411.8157
411.8157
411.8157
411.8157
0
0
0
411.8157
411.8157
411.8157
411.8157
411.8157
411.8157
411.8157
411.8157
411.8157
411.8157
411.8157
411.8157
411.8157
411.8157
411.8157
411.8157
411.8157
411.8157
411.8157
411.8157
411.8157
411.8157
411.8157
411.8157
411.8157
411.8157
411.8157
411.8157
0
0
0
411.8157
0
0
411.8157
0
0
411.8157
0
0
411.8157
0
411.8157
411.8157
411.8157
411.8157
411.8157
0
411.8157
0
411.8157
0
0
411.8157
411.8157
411.8157
411.8157
0
0
0
411.8157
411.8157
411.8157
411.8157
0
0
0
411.8157
411.8157
411.8157
411.8157
411.8157
411.8157
411.8157
411.8157
411.8157
411.8157
411.8157
411.8157
411.8157
411.8157
411.8157
411.8157
411.8157
411.8157
0
0
0
0
0
0
0
0
0
0
0
0
411.8157
411.8157
411.8157
411.8157
411.8157
411.8157
411.8157
0
0
411.8157
411.8157
411.8157
411.8157
411.8157
411.8157
411.8157
411.8157
411.8157
411.8157
411.8157
411.8157
411.8157
411.8157
411.8157
411.8157
411.8157
411.8157
411.8157
411.8157
411.8157
411.8157
411.8157
411.8157
411.8157
411.8157
411.8157
411.8157
411.8157
411.8157
411.8157
0
0
411.8157
0
0
411.8157
0
0
0
0
411.8157
0
0
411.8157
0
0
0
0
411.8157
0
0
0
0
411.8157
0
0
411.8157
0
0
0
0
411.8157
0
0
0
411.8157
0
0
411.8157
0
0
411.8157
0
0
0
0
0
411.8157
411.8157
411.8157
411.8157
411.8157
411.8157
411.8157
411.8157
411.8157
0
411.8157
0
0
0
0
0
0
0
411.8157
411.8157
411.8157
0
0
0
0
0
0
0
0
0
0
0
411.8157
411.8157
411.8157
0
411.8157
411.8157
411.8157
0
411.8157
411.8157
411.8157
0
411.8157
411.8157
411.8157
0
411.8157
411.8157
411.8157
0
411.8157
411.8157
411.8157
0
411.8157
411.8157
411.8157
0
411.8157
411.8157
411.8157
0
411.8157
411.8157
411.8157
0
411.8157
411.8157
411.8157
0
411.8157
411.8157
411.8157
0
0
0
0
0
0
0
0
0
0
0
0
0
0
0
0
0
0
0
0
0
0
0
0
0
0
0
0
0
0
0
0
0
0
411.8157
0
0
411.8157
411.8157
411.8157
411.8157
411.8157
411.8157
411.8157
411.8157
0
0
0
0
0
0
0
0
0
0
411.8157
411.8157
411.8157
411.8157
0
0
0
0
0
0
0
0
0
0
0
0
0
411.8157
411.8157
411.8157
411.8157
411.8157
411.8157
411.8157
411.8157
411.8157
411.8157
0
0
0
0
0
0
411.8157
411.8157
411.8157
411.8157
411.8157
411.8157
411.8157
411.8157
411.8157
411.8157
411.8157
411.8157
411.8157
411.8157
411.8157
411.8157
411.8157
411.8157
411.8157
411.8157
411.8157
411.8157
411.8157
411.8157
411.8157
411.8157
411.8157
411.8157
411.8157
0
0
0
0
0
0
0
0
0
411.8157
411.8157
411.8157
411.8157
411.8157
411.8157
411.8157
411.8157
411.8157
411.8157
411.8157
411.8157
0
0
0
0
0
0
0
0
0
0
0
0
0
0
0
411.8157
411.8157
411.8157
411.8157
411.8157
411.8157
411.8157
411.8157
411.8157
411.8157
411.8157
411.8157
411.8157
411.8157
411.8157
411.8157
411.8157
411.8157
0
0
0
0
411.8157
411.8157
411.8157
411.8157
411.8157
411.8157
0
0
0
0
411.8157
411.8157
411.8157
411.8157
411.8157
411.8157
411.8157
411.8157
411.8157
411.8157
411.8157
411.8157
411.8157
411.8157
411.8157
411.8157
411.8157
411.8157
411.8157
411.8157
411.8157
411.8157
411.8157
411.8157
411.8157
411.8157
411.8157
411.8157
411.8157
411.8157
411.8157
411.8157
411.8157
411.8157
411.8157
411.8157
411.8157
411.8157
411.8157
411.8157
411.8157
411.8157
411.8157
411.8157
411.8157
411.8157
411.8157
411.8157
411.8157
411.8157
411.8157
411.8157
0
0
0
0
0
0
0
0
0
0
0
0
0
0
0
0
0
0
0
0
0
0
0
0
0
0
0
0
0
0
0
0
0
0
0
0
0
0
0
0
0
0
0
0
0
0
0
0
0
0
0
0
0
0
0
411.8157
411.8157
411.8157
0
0
0
0
0
0
0
0
411.8157
411.8157
411.8157
411.8157
411.8157
0
411.8157
0
411.8157
0
0
0
411.8157
0
411.8157
0
0
0
411.8157
0
0
411.8157
0
0
411.8157
0
0
411.8157
0
0
411.8157
0
0
411.8157
0
411.8157
0
0
0
0
0
0
0
0
0
0
0
0
0
411.8157
0
0
0
0
0
0
0
0
0
411.8157
0
411.8157
0
411.8157
0
411.8157
0
411.8157
0
411.8157
0
411.8157
0
411.8157
0
411.8157
0
411.8157
0
411.8157
0
0
0
0
0
0
0
0
0
0
0
0
0
0
0
0
0
0
0
0
0
0
0
0
411.8157
411.8157
411.8157
411.8157
0
0
0
0
0
411.8157
411.8157
0
0
0
0
0
0
0
0
0
0
0
0
0
0
0
0
0
0
0
0
0
0
0
0
0
0
0
411.8157
411.8157
411.8157
411.8157
411.8157
0
0
0
0
0
0
0
0
0
0
0
0
411.8157
411.8157
411.8157
411.8157
411.8157
411.8157
411.8157
411.8157
411.8157
411.8157
411.8157
411.8157
411.8157
411.8157
411.8157
411.8157
411.8157
411.8157
411.8157
411.8157
0
0
0
0
0
0
0
0
411.8157
411.8157
411.8157
411.8157
411.8157
411.8157
411.8157
411.8157
411.8157
0
0
0
0
0
0
0
0
0
0
0
0
0
411.8157
411.8157
411.8157
0
0
0
0
0
0
0
0
0
0
0
0
0
0
411.8157
411.8157
411.8157
411.8157
411.8157
411.8157
411.8157
411.8157
411.8157
411.8157
411.8157
411.8157
411.8157
411.8157
411.8157
411.8157
411.8157
411.8157
411.8157
411.8157
411.8157
411.8157
411.8157
411.8157
411.8157
411.8157
0
0
0
0
0
0
0
0
0
0
0
0
0
0
0
0
0
0
0
0
0
)


972
(
0
0
0
0
0
0
0
0
0
0
0
0
0
0
0
0
0
0
0
0
0
0
0
0
0
0
0
0
0
0
0
0
0
0
0
0
0
0
0
0
0
0
0
0
0
0
0
0
0
0
0
0
0
0
0
0
0
0
0
0
0
0
0
0
0
0
0
0
0
0
0
0
0
0
0
0
0
0
0
0
0
0
0
0
0
0
0
0
0
0
0
0
0
0
0
0
0
0
0
0
0
0
0
0
0
0
0
0
284.42858
284.42858
0
284.42858
284.42858
284.42858
284.42858
284.42858
284.42858
284.42858
284.42858
284.42858
0
284.42858
284.42858
284.42858
284.42858
284.42858
284.42858
284.42858
284.42858
284.42858
284.42858
284.42858
284.42858
284.42858
0
0
0
284.42858
284.42858
284.42858
284.42858
284.42858
284.42858
284.42858
284.42858
284.42858
284.42858
284.42858
284.42858
284.42858
284.42858
284.42858
284.42858
284.42858
284.42858
284.42858
284.42858
284.42858
284.42858
284.42858
284.42858
284.42858
284.42858
284.42858
284.42858
13.053587
13.053587
13.053587
284.42858
13.053587
13.053587
284.42858
13.053587
13.053587
284.42858
13.053587
13.053587
284.42858
13.053587
284.42858
284.42858
284.42858
284.42858
284.42858
13.053587
284.42858
13.053587
284.42858
13.053587
13.053587
284.42858
284.42858
284.42858
284.42858
0
0
0
284.42858
284.42858
284.42858
284.42858
13.053587
13.053587
13.053587
284.42858
284.42858
284.42858
284.42858
284.42858
284.42858
284.42858
284.42858
284.42858
284.42858
284.42858
284.42858
284.42858
284.42858
284.42858
284.42858
284.42858
284.42858
13.053587
13.053587
13.053587
13.053587
13.053587
13.053587
13.053587
13.053587
13.053587
13.053587
13.053587
13.053587
284.42858
284.42858
284.42858
284.42858
284.42858
284.42858
284.42858
13.053587
13.053587
284.42858
284.42858
284.42858
284.42858
284.42858
284.42858
284.42858
284.42858
284.42858
284.42858
284.42858
284.42858
284.42858
284.42858
284.42858
284.42858
284.42858
284.42858
284.42858
284.42858
284.42858
284.42858
284.42858
284.42858
284.42858
284.42858
284.42858
284.42858
284.42858
284.42858
284.42858
13.053587
13.053587
284.42858
13.053587
13.053587
284.42858
13.053587
13.053587
13.053587
13.053587
284.42858
13.053587
13.053587
284.42858
13.053587
13.053587
13.053587
13.053587
284.42858
13.053587
13.053587
13.053587
13.053587
284.42858
13.053587
13.053587
284.42858
13.053587
13.053587
13.053587
13.053587
284.42858
13.053587
13.053587
13.053587
284.42858
13.053587
13.053587
284.42858
13.053587
13.053587
284.42858
13.053587
13.053587
13.053587
13.053587
13.053587
284.42858
284.42858
284.42858
284.42858
284.42858
284.42858
284.42858
284.42858
284.42858
0
284.42858
13.053587
0
13.053587
13.053587
13.053587
13.053587
0
284.42858
284.42858
284.42858
0
0
0
0
0
0
0
13.053587
0
13.053587
0
284.42858
284.42858
284.42858
0
284.42858
284.42858
284.42858
0
284.42858
284.42858
284.42858
0
284.42858
284.42858
284.42858
0
284.42858
284.42858
284.42858
0
284.42858
284.42858
284.42858
0
284.42858
284.42858
284.42858
0
284.42858
284.42858
284.42858
0
284.42858
284.42858
284.42858
0
284.42858
284.42858
284.42858
0
284.42858
284.42858
284.42858
0
0
0
0
0
0
0
0
0
0
0
0
0
0
0
0
0
0
0
0
0
0
0
0
0
0
0
0
0
0
0
0
0
0
284.42858
0
0
284.42858
284.42858
284.42858
284.42858
284.42858
284.42858
284.42858
284.42858
0
0
0
0
0
0
0
0
0
0
284.42858
284.42858
284.42858
284.42858
0
0
0
0
0
0
0
0
0
0
0
0
0
284.42858
284.42858
284.42858
284.42858
284.42858
284.42858
284.42858
284.42858
284.42858
284.42858
0
0
0
0
0
0
284.42858
284.42858
284.42858
284.42858
284.42858
284.42858
284.42858
284.42858
284.42858
284.42858
284.42858
284.42858
284.42858
284.42858
284.42858
284.42858
284.42858
284.42858
284.42858
284.42858
284.42858
284.42858
284.42858
284.42858
284.42858
284.42858
284.42858
284.42858
284.42858
0
0
0
0
0
0
0
0
0
284.42858
284.42858
284.42858
284.42858
284.42858
284.42858
284.42858
284.42858
284.42858
284.42858
284.42858
284.42858
13.053587
13.053587
13.053587
13.053587
13.053587
13.053587
13.053587
13.053587
13.053587
13.053587
13.053587
13.053587
13.053587
13.053587
13.053587
284.42858
284.42858
284.42858
284.42858
284.42858
284.42858
284.42858
284.42858
284.42858
284.42858
284.42858
284.42858
284.42858
284.42858
284.42858
284.42858
284.42858
284.42858
0
0
0
0
284.42858
284.42858
284.42858
284.42858
284.42858
284.42858
0
0
0
0
284.42858
284.42858
284.42858
284.42858
284.42858
284.42858
284.42858
284.42858
284.42858
284.42858
284.42858
284.42858
284.42858
284.42858
284.42858
284.42858
284.42858
284.42858
284.42858
284.42858
284.42858
284.42858
284.42858
284.42858
284.42858
284.42858
284.42858
284.42858
284.42858
284.42858
284.42858
284.42858
284.42858
284.42858
284.42858
284.42858
284.42858
284.42858
284.42858
284.42858
284.42858
284.42858
284.42858
284.42858
284.42858
284.42858
284.42858
284.42858
284.42858
284.42858
284.42858
284.42858
0
0
0
0
0
0
0
0
0
0
0
0
0
0
0
0
0
0
0
0
0
0
0
0
0
0
0
0
0
0
0
0
0
0
0
0
0
0
0
0
0
0
0
0
0
0
0
0
0
0
0
0
0
0
0
284.42858
284.42858
284.42858
13.053587
13.053587
13.053587
13.053587
13.053587
13.053587
13.053587
13.053587
284.42858
284.42858
284.42858
284.42858
284.42858
13.053587
284.42858
13.053587
284.42858
13.053587
13.053587
13.053587
284.42858
13.053587
284.42858
13.053587
13.053587
13.053587
284.42858
13.053587
13.053587
284.42858
13.053587
13.053587
284.42858
13.053587
13.053587
284.42858
13.053587
13.053587
284.42858
13.053587
13.053587
284.42858
13.053587
284.42858
13.053587
13.053587
13.053587
13.053587
0
0
0
0
0
0
13.053587
13.053587
0
284.42858
0
0
0
0
0
0
0
0
0
284.42858
0
284.42858
0
284.42858
0
284.42858
0
284.42858
0
284.42858
0
284.42858
0
284.42858
0
284.42858
0
284.42858
0
284.42858
0
0
0
0
0
0
0
0
0
0
0
0
0
0
0
0
0
0
0
0
0
0
0
0
284.42858
284.42858
284.42858
284.42858
0
0
0
0
0
284.42858
284.42858
0
0
0
0
0
0
0
0
0
0
0
0
0
0
0
0
0
0
0
0
0
0
0
0
0
0
0
284.42858
284.42858
284.42858
284.42858
284.42858
0
0
0
0
0
0
0
0
0
0
0
0
284.42858
284.42858
284.42858
284.42858
284.42858
284.42858
284.42858
284.42858
284.42858
284.42858
284.42858
284.42858
284.42858
284.42858
284.42858
284.42858
284.42858
284.42858
284.42858
284.42858
13.053587
13.053587
13.053587
13.053587
13.053587
13.053587
13.053587
13.053587
284.42858
284.42858
284.42858
284.42858
284.42858
284.42858
284.42858
284.42858
284.42858
0
0
0
0
0
0
0
0
0
0
0
0
0
284.42858
284.42858
284.42858
0
0
0
0
0
0
0
0
0
0
0
0
0
0
284.42858
284.42858
284.42858
284.42858
284.42858
284.42858
284.42858
284.42858
284.42858
284.42858
284.42858
284.42858
284.42858
284.42858
284.42858
284.42858
284.42858
284.42858
284.42858
284.42858
284.42858
284.42858
284.42858
284.42858
284.42858
284.42858
0
0
0
0
0
0
0
0
0
0
0
0
0
0
0
0
0
0
0
0
0
)

)

skyViewCoeff: 
5
(

972
(
0
0
188
188
188
188
188
188
188
188
188
188
188
188
188
188
188
0
0
0
0
0
0
0
94
94
94
94
94
94
94
94
94
94
94
94
94
94
94
94
94
94
94
94
94
94
94
94
94
94
94
94
94
94
94
94
94
94
94
94
94
94
94
94
94
94
94
94
94
94
94
94
94
94
94
94
94
94
94
94
94
94
94
94
94
94
94
94
94
94
94
94
94
94
94
94
94
94
94
94
94
94
94
94
94
94
94
94
188
188
94
187.99999
188
188
188
188
188
188
188
188
94
188
188
188
188
188
188
188
188
188
188
188
188
188
94
94
94
188
188
188
188
188
188
188
188
188
188
188
188
188
188
188
188
188
188
188
188
188
188
188
188
188
188
188
188
94
94
94
188
94
94
188
94
94
188
94
94
188
94
188
188
188
188
188
94
188
94
188
94
94
188
188
188
188
94
94
94
188
188
188
188
94
94
94
188
188
188
188
188
188
188
188
188
188
188
188
188
188
188
188
188
188
94
94
94
94
94
94
94
94
94
94
94
94
188
188
188
188
188
188
188
94
94
188
188
188
188
188
188
188
188
188
188
188
188
188
188
188
188
188
188
188
188
188
188
188
188
188
188
188
188
188
188
188
94
94
188
94
94
188
94
94
94
94
188
94
94
188
94
94
94
94
188
94
94
94
94
188
94
94
188
94
94
94
94
188
94
94
94
188
94
94
188
94
94
188
94
94
94
94
94
188
188
188
188
188
188
188
188
188
94
188
94
94
94
94
94
94
94
188
188
188
94
94
94
94
94
94
94
94
94
94
94
188
188
188
94
188
188
188
94
188
188
188
94
188
188
188
94
188
188
188
94
188
188
188
94
188
188
188
94
188
188
188
94
188
188
188
94
188
188
188
94
188
188
188
94
94
94
94
94
94
94
94
94
94
94
94
94
94
94
94
94
94
94
94
94
94
94
94
94
94
94
94
94
94
94
94
94
94
187.99999
94
94
188
188
188
188
188
188
188
188
94
94
94
94
94
94
94
94
94
94
188
188
188
188
94
94
94
94
94
94
94
94
94
94
94
94
94
188
188
188
188
188
188
188
188
188
188
94
94
94
94
94
94
188
188
188
188
188
188
188
188
188
188
188
188
188
188
188
188
188
188
188
188
188
188
188
188
188
188
188
188
188
94
94
94
94
94
94
94
94
94
188
188
188
188
188
188
188
188
188
188
188
188
94
94
94
94
94
94
94
94
94
94
94
94
94
94
94
188
188
188
188
188
188
188
188
188
188
188
188
188
188
188
188
188
188
94
94
94
94
188
188
188
188
188
188
94
94
94
94
188
188
188
188
188
188
188
188
188
188
188
188
188
188
188
188
188
188
188
188
188
188
188
188
188
188
188
188
188
188
188
188
188
188
188
188
188
188
188
188
188
188
188
188
188
188
188
188
188
188
188
188
94
94
94
94
94
94
94
94
94
94
94
94
94
94
94
94
94
94
94
94
94
94
94
94
94
94
94
94
94
94
94
94
94
94
94
94
94
94
94
94
94
94
94
94
94
94
94
94
94
94
94
94
94
94
94
188
188
188
94
94
94
94
94
94
94
94
188
188
188
188
188
94
188
94
188
94
94
94
188
94
188
94
94
94
188
94
94
188
94
94
188
94
94
188
94
94
188
94
94
188
94
188
94
94
94
94
94
94
94
94
94
94
94
94
94
188
94
94
94
94
94
94
94
94
94
188
94
188
94
188
94
188
94
188
94
188
94
188
94
188
94
188
94
188
94
188
94
94
94
94
94
94
94
94
94
94
94
94
94
94
94
94
94
94
94
94
94
94
94
94
188
188
188
188
94
94
94
94
94
188
188
94
94
94
94
94
94
94
94
94
94
94
94
94
94
94
94
94
94
94
94
94
94
94
94
94
94
94
188
188
188
188
188
94
94
94
94
94
94
94
94
94
94
94
94
188
188
188
188
188
188
188
188
188
188
188
188
188
188
188
188
188
188
188
188
94
94
94
94
94
94
94
94
188
188
188
188
188
188
188
188
188
94
94
94
94
94
94
94
94
94
94
94
94
94
188
188
188
94
94
94
94
94
94
94
94
94
94
94
94
94
94
188
188
188
188
188
188
188
188
188
188
188
188
188
188
188
188
188
188
188
188
188
188
188
188
188
188
94
94
94
94
94
94
94
94
94
94
94
94
94
94
94
94
94
94
94
94
94
)


972
(
0
0
227
227
227
227
227
227
227
227
227
227
227
227
227
227
227
0
0
0
0
0
0
0
113.5
113.5
113.5
113.5
113.5
113.5
113.5
113.5
113.5
113.5
113.5
113.5
113.5
113.5
113.5
113.5
113.5
113.5
113.5
113.5
113.5
113.5
113.5
113.5
113.5
113.5
113.5
113.5
113.5
113.5
113.5
113.5
113.5
113.5
113.5
113.5
113.5
113.5
113.5
113.5
113.5
113.5
113.5
113.5
113.5
113.5
113.5
113.5
113.5
113.5
113.5
113.5
113.5
113.5
113.5
113.5
113.5
113.5
113.5
113.5
113.5
113.5
113.5
113.5
113.5
113.5
113.5
113.5
113.5
113.5
113.5
113.5
113.5
113.5
113.5
113.5
113.5
113.5
113.5
113.5
113.5
113.5
113.5
113.5
226.99999
226.99999
113.5
226.99999
226.99999
227
226.99999
227
227
226.99999
226.99999
226.99999
113.5
226.99999
226.99999
226.99999
227
227
227
226.99999
227
227
227
227
227
226.99999
113.5
113.5
113.5
227
226.99999
226.99999
227
226.99999
226.99999
227
226.99999
226.99999
227
227
226.99999
226.99999
226.99999
226.99999
226.99999
226.99999
226.99999
226.99999
226.99999
226.99999
226.99999
226.99999
226.99999
226.99999
226.99999
226.99999
226.99999
113.5
113.5
113.5
227
113.5
113.5
227
113.5
113.5
227
113.5
113.5
227
113.5
227
227
227
227
227
113.5
227
113.5
227
113.5
113.5
227
227
227
227
113.5
113.5
113.5
227
227
227
227
113.5
113.5
113.5
226.99999
227
226.99999
226.99999
226.99999
227
226.99999
226.99999
226.99999
226.99999
226.99999
226.99999
226.99999
226.99999
226.99999
226.99999
226.99999
226.99999
113.5
113.5
113.5
113.5
113.5
113.5
113.5
113.5
113.5
113.5
113.5
113.5
226.99999
227
226.99999
226.99999
226.99999
227
226.99999
113.5
113.5
227
226.99999
226.99999
227
227
226.99999
226.99999
226.99999
226.99999
226.99999
226.99999
226.99999
227
227
226.99999
226.99999
226.99999
226.99999
226.99999
226.99999
226.99999
226.99999
227
226.99999
227
226.99999
226.99999
226.99999
226.99999
226.99999
226.99999
113.5
113.5
227
113.5
113.5
227
113.5
113.5
113.5
113.5
227
113.5
113.5
227
113.5
113.5
113.5
113.5
227
113.5
113.5
113.5
113.5
227
113.5
113.5
227
113.5
113.5
113.5
113.5
227
113.5
113.5
113.5
227
113.5
113.5
227
113.5
113.5
227
113.5
113.5
113.5
113.5
113.5
226.99999
227
226.99999
227
226.99999
226.99999
227
226.99999
226.99999
113.5
226.99999
113.5
113.5
113.5
113.5
113.5
113.5
113.5
226.99999
226.99999
226.99999
113.5
113.5
113.5
113.5
113.5
113.5
113.5
113.5
113.5
113.5
113.5
226.99999
226.99999
226.99999
113.5
226.99999
226.99999
226.99999
113.5
226.99999
226.99999
226.99999
113.5
226.99999
226.99999
226.99999
113.5
226.99999
226.99999
226.99999
113.5
226.99999
226.99999
226.99999
113.5
226.99999
226.99999
226.99999
113.5
226.99999
226.99999
226.99999
113.5
226.99999
226.99999
226.99999
113.5
226.99999
226.99999
226.99999
113.5
226.99999
226.99999
226.99999
113.5
113.5
113.5
113.5
113.5
113.5
113.5
113.5
113.5
113.5
113.5
113.5
113.5
113.5
113.5
113.5
113.5
113.5
113.5
113.5
113.5
113.5
113.5
113.5
113.5
113.5
113.5
113.5
113.5
113.5
113.5
113.5
113.5
113.5
226.99999
113.5
113.5
227
226.99999
227
226.99999
227
226.99999
227
226.99999
113.5
113.5
113.5
113.5
113.5
113.5
113.5
113.5
113.5
113.5
227
227
227
227
113.5
113.5
113.5
113.5
113.5
113.5
113.5
113.5
113.5
113.5
113.5
113.5
113.5
226.99999
226.99999
226.99999
226.99999
226.99999
226.99999
226.99999
226.99999
226.99999
226.99999
113.5
113.5
113.5
113.5
113.5
113.5
227
226.99999
227
226.99999
227
226.99999
227
226.99999
227
227
227
227
227
227
227
227
227
227
227
227
227
227
227
227
227
227
227
227
227
113.5
113.5
113.5
113.5
113.5
113.5
113.5
113.5
113.5
227
227
227
227
227
227
227
227
226.99999
226.99999
226.99999
226.99999
113.5
113.5
113.5
113.5
113.5
113.5
113.5
113.5
113.5
113.5
113.5
113.5
113.5
113.5
113.5
226.99999
226.99999
226.99999
226.99999
226.99999
226.99999
226.99999
226.99999
226.99999
226.99999
226.99999
226.99999
226.99999
226.99999
226.99999
226.99999
226.99999
226.99999
113.5
113.5
113.5
113.5
226.99999
226.99999
226.99999
226.99999
226.99999
226.99999
113.5
113.5
113.5
113.5
226.99999
226.99999
226.99999
226.99999
226.99999
226.99999
226.99999
226.99999
226.99999
226.99999
226.99999
226.99999
226.99999
226.99999
227
226.99999
226.99999
226.99999
226.99999
226.99999
226.99999
226.99999
226.99999
226.99999
226.99999
226.99999
226.99999
226.99999
227
227
227
226.99999
227
226.99999
226.99999
226.99999
226.99999
226.99999
226.99999
226.99999
226.99999
226.99999
226.99999
226.99999
226.99999
226.99999
226.99999
226.99999
226.99999
226.99999
226.99999
226.99999
113.5
113.5
113.5
113.5
113.5
113.5
113.5
113.5
113.5
113.5
113.5
113.5
113.5
113.5
113.5
113.5
113.5
113.5
113.5
113.5
113.5
113.5
113.5
113.5
113.5
113.5
113.5
113.5
113.5
113.5
113.5
113.5
113.5
113.5
113.5
113.5
113.5
113.5
113.5
113.5
113.5
113.5
113.5
113.5
113.5
113.5
113.5
113.5
113.5
113.5
113.5
113.5
113.5
113.5
113.5
226.99999
226.99999
226.99999
113.5
113.5
113.5
113.5
113.5
113.5
113.5
113.5
227
227
226.99999
226.99999
226.99999
113.5
227
113.5
227
113.5
113.5
113.5
227
113.5
227
113.5
113.5
113.5
227
113.5
113.5
227
113.5
113.5
227
113.5
113.5
227
113.5
113.5
227
113.5
113.5
227
113.5
227
113.5
113.5
113.5
113.5
113.5
113.5
113.5
113.5
113.5
113.5
113.5
113.5
113.5
226.99999
113.5
113.5
113.5
113.5
113.5
113.5
113.5
113.5
113.5
226.99999
113.5
226.99999
113.5
226.99999
113.5
226.99999
113.5
226.99999
113.5
226.99999
113.5
226.99999
113.5
226.99999
113.5
226.99999
113.5
226.99999
113.5
226.99999
113.5
113.5
113.5
113.5
113.5
113.5
113.5
113.5
113.5
113.5
113.5
113.5
113.5
113.5
113.5
113.5
113.5
113.5
113.5
113.5
113.5
113.5
113.5
113.5
226.99999
226.99999
226.99999
227
113.5
113.5
113.5
113.5
113.5
227
227
113.5
113.5
113.5
113.5
113.5
113.5
113.5
113.5
113.5
113.5
113.5
113.5
113.5
113.5
113.5
113.5
113.5
113.5
113.5
113.5
113.5
113.5
113.5
113.5
113.5
113.5
113.5
226.99999
226.99999
226.99999
226.99999
226.99999
113.5
113.5
113.5
113.5
113.5
113.5
113.5
113.5
113.5
113.5
113.5
113.5
226.99999
226.99999
226.99999
226.99999
227
227
227
227
227
227
227
227
227
227
227
227
227
227
226.99999
226.99999
113.5
113.5
113.5
113.5
113.5
113.5
113.5
113.5
226.99999
226.99999
226.99999
226.99999
226.99999
226.99999
226.99999
226.99999
226.99999
113.5
113.5
113.5
113.5
113.5
113.5
113.5
113.5
113.5
113.5
113.5
113.5
113.5
226.99999
226.99999
226.99999
113.5
113.5
113.5
113.5
113.5
113.5
113.5
113.5
113.5
113.5
113.5
113.5
113.5
113.5
226.99999
226.99999
226.99999
226.99999
226.99999
226.99999
227
226.99999
226.99999
226.99999
226.99999
226.99999
226.99999
226.99999
227
226.99999
227
226.99999
226.99999
226.99999
226.99999
226.99999
226.99999
226.99999
226.99999
226.99999
113.5
113.5
113.5
113.5
113.5
113.5
113.5
113.5
113.5
113.5
113.5
113.5
113.5
113.5
113.5
113.5
113.5
113.5
113.5
113.5
113.5
)


972
(
0
0
192
192
192
192
192
192
192
192
192
192
192
192
192
192
192
0
0
0
0
0
0
0
96
96
96
96
96
96
96
96
96
96
96
96
96
96
96
96
96
96
96
96
96
96
96
96
96
96
96
96
96
96
96
96
96
96
96
96
96
96
96
96
96
96
96
96
96
96
96
96
96
96
96
96
96
96
96
96
96
96
96
96
96
96
96
96
96
96
96
96
96
96
96
96
96
96
96
96
96
96
96
96
96
96
96
96
192
192
96
191.99999
192
192
192
192
192
192
192
192
96
192
192
192
192
192
192
192
192
192
192
192
192
192
96
96
96
192
192
192
192
192
192
192
192
192
192
192
192
192
192
192
192
192
192
192
192
192
192
192
192
192
192
192
192
96
96
96
192
96
96
192
96
96
192
96
96
192
96
192
192
192
192
192
96
192
96
192
96
96
192
192
192
192
96
96
96
192
192
192
192
96
96
96
192
192
192
192
192
192
192
192
192
192
192
192
192
192
192
192
192
192
96
96
96
96
96
96
96
96
96
96
96
96
192
192
192
192
192
192
192
96
96
192
192
192
192
192
192
192
192
192
192
192
192
192
192
192
192
192
192
192
192
192
192
192
192
192
192
192
192
192
192
192
96
96
192
96
96
192
96
96
96
96
192
96
96
192
96
96
96
96
192
96
96
96
96
192
96
96
192
96
96
96
96
192
96
96
96
192
96
96
192
96
96
192
96
96
96
96
96
192
192
192
192
192
192
192
192
192
96
192
96
96
96
96
96
96
96
191.99999
192
192
96
96
96
96
96
96
96
96
96
96
96
192
192
192
96
192
192
192
96
192
192
192
96
192
192
192
96
192
192
192
96
192
192
192
96
192
192
192
96
192
192
192
96
192
192
192
96
192
192
192
96
192
192
192
96
96
96
96
96
96
96
96
96
96
96
96
96
96
96
96
96
96
96
96
96
96
96
96
96
96
96
96
96
96
96
96
96
96
191.99999
96
96
192
192
192
192
192
192
192
192
96
96
96
96
96
96
96
96
96
96
192
192
192
192
96
96
96
96
96
96
96
96
96
96
96
96
96
192
192
192
192
192
192
192
192
192
192
96
96
96
96
96
96
192
192
192
192
192
192
192
192
192
192
192
192
192
192
192
192
192
192
192
192
192
192
192
192
192
192
192
192
192
96
96
96
96
96
96
96
96
96
192
192
192
192
192
192
192
192
192
192
192
192
96
96
96
96
96
96
96
96
96
96
96
96
96
96
96
192
192
192
192
192
192
192
192
192
192
192
192
192
192
192
192
192
192
96
96
96
96
192
192
192
192
192
192
96
96
96
96
192
192
192
192
192
192
192
192
192
192
192
192
192
192
192
192
192
192
192
192
192
192
192
192
192
192
192
192
192
192
192
192
192
192
192
192
192
192
192
192
192
192
192
192
192
192
192
192
192
192
192
192
96
96
96
96
96
96
96
96
96
96
96
96
96
96
96
96
96
96
96
96
96
96
96
96
96
96
96
96
96
96
96
96
96
96
96
96
96
96
96
96
96
96
96
96
96
96
96
96
96
96
96
96
96
96
96
192
192
192
96
96
96
96
96
96
96
96
192
192
192
192
192
96
192
96
192
96
96
96
192
96
192
96
96
96
192
96
96
192
96
96
192
96
96
192
96
96
192
96
96
192
96
192
96
96
96
96
96
96
96
96
96
96
96
96
96
192
96
96
96
96
96
96
96
96
96
192
96
192
96
192
96
192
96
192
96
192
96
192
96
192
96
192
96
192
96
192
96
96
96
96
96
96
96
96
96
96
96
96
96
96
96
96
96
96
96
96
96
96
96
96
192
192
192
192
96
96
96
96
96
192
192
96
96
96
96
96
96
96
96
96
96
96
96
96
96
96
96
96
96
96
96
96
96
96
96
96
96
96
192
192
192
192
192
96
96
96
96
96
96
96
96
96
96
96
96
192
192
192
192
192
192
192
192
192
192
192
192
192
192
192
192
192
192
192
192
96
96
96
96
96
96
96
96
192
192
192
192
192
192
192
192
192
96
96
96
96
96
96
96
96
96
96
96
96
96
192
192
192
96
96
96
96
96
96
96
96
96
96
96
96
96
96
192
192
192
192
192
192
192
192
192
192
192
192
192
192
192
192
192
192
192
192
192
192
192
192
192
192
96
96
96
96
96
96
96
96
96
96
96
96
96
96
96
96
96
96
96
96
96
)


972
(
0
0
149
149
149
149
149
149
149
149
149
149
149
149
149
149
149
0
0
0
0
0
0
0
74.5
74.5
74.5
74.5
74.5
74.5
74.5
74.5
74.5
74.5
74.5
74.5
74.5
74.5
74.5
74.5
74.5
74.5
74.5
74.5
74.5
74.5
74.5
74.5
74.5
74.5
74.5
74.5
74.5
74.5
74.5
74.5
74.5
74.5
74.5
74.5
74.5
74.5
74.5
74.5
74.5
74.5
74.5
74.5
74.5
74.5
74.5
74.5
74.5
74.5
74.5
74.5
74.5
74.5
74.5
74.5
74.5
74.5
74.5
74.5
74.5
74.5
74.5
74.5
74.5
74.5
74.5
74.5
74.5
74.5
74.5
74.5
74.5
74.5
74.5
74.5
74.5
74.5
74.5
74.5
74.5
74.5
74.5
74.5
149
149
74.5
149
149
149
149
149
149
149
149
149
74.5
149
149
149
149
149
149
149
149
149
149
149
149
149
74.5
74.5
74.5
149
149
149
149
149
149
149
149
149
149
149
149
149
149
149
149
149
149
149
149
149
149
149
149
149
149
149
149
74.5
74.5
74.5
149
74.5
74.5
149
74.5
74.5
149
74.5
74.5
149
74.5
149
149
149
149
149
74.5
149
74.5
149
74.5
74.5
149
149
149
149
74.5
74.5
74.5
149
149
149
149
74.5
74.5
74.5
149
149
149
149
149
149
149
149
149
149
149
149
149
149
149
149
149
149
74.5
74.5
74.5
74.5
74.5
74.5
74.5
74.5
74.5
74.5
74.5
74.5
149
149
149
149
149
149
149
74.5
74.5
149
149
149
149
149
149
149
149
149
149
149
149
149
149
149
149
149
149
149
149
149
149
149
149
149
149
149
149
149
149
149
74.5
74.5
149
74.5
74.5
149
74.5
74.5
74.5
74.5
149
74.5
74.5
149
74.5
74.5
74.5
74.5
149
74.5
74.5
74.5
74.5
149
74.5
74.5
149
74.5
74.5
74.5
74.5
149
74.5
74.5
74.5
149
74.5
74.5
149
74.5
74.5
149
74.5
74.5
74.5
74.5
74.5
149
149
149
149
149
149
149
149
149
74.5
149
74.5
74.5
74.5
74.5
74.5
74.5
74.5
149
149
149
74.5
74.5
74.5
74.5
74.5
74.5
74.5
74.5
74.5
74.5
74.5
149
149
149
74.5
149
149
149
74.5
149
149
149
74.5
149
149
149
74.5
149
149
149
74.5
149
149
149
74.5
149
149
149
74.5
149
149
149
74.5
149
149
149
74.5
149
149
149
74.5
149
149
149
74.5
74.5
74.5
74.5
74.5
74.5
74.5
74.5
74.5
74.5
74.5
74.5
74.5
74.5
74.5
74.5
74.5
74.5
74.5
74.5
74.5
74.5
74.5
74.5
74.5
74.5
74.5
74.5
74.5
74.5
74.5
74.5
74.5
74.5
149
74.5
74.5
149
149
149
149
149
149
149
149
74.5
74.5
74.5
74.5
74.5
74.5
74.5
74.5
74.5
74.5
149
149
149
149
74.5
74.5
74.5
74.5
74.5
74.5
74.5
74.5
74.5
74.5
74.5
74.5
74.5
149
149
149
149
149
149
149
149
149
149
74.5
74.5
74.5
74.5
74.5
74.5
149
149
149
149
149
149
149
149
149
149
149
149
149
149
149
149
149
149
149
149
149
149
149
149
149
149
149
149
149
74.5
74.5
74.5
74.5
74.5
74.5
74.5
74.5
74.5
149
149
149
149
149
149
149
149
149
149
149
149
74.5
74.5
74.5
74.5
74.5
74.5
74.5
74.5
74.5
74.5
74.5
74.5
74.5
74.5
74.5
149
149
149
149
149
149
149
149
149
149
149
149
149
149
149
149
149
149
74.5
74.5
74.5
74.5
149
149
149
149
149
149
74.5
74.5
74.5
74.5
149
149
149
149
149
149
149
149
149
149
149
149
149
149
149
149
149
149
149
149
149
149
149
149
149
149
149
149
149
149
149
149
149
149
149
149
149
149
149
149
149
149
149
149
149
149
149
149
149
149
149
149
74.5
74.5
74.5
74.5
74.5
74.5
74.5
74.5
74.5
74.5
74.5
74.5
74.5
74.5
74.5
74.5
74.5
74.5
74.5
74.5
74.5
74.5
74.5
74.5
74.5
74.5
74.5
74.5
74.5
74.5
74.5
74.5
74.5
74.5
74.5
74.5
74.5
74.5
74.5
74.5
74.5
74.5
74.5
74.5
74.5
74.5
74.5
74.5
74.5
74.5
74.5
74.5
74.5
74.5
74.5
149
149
149
74.5
74.5
74.5
74.5
74.5
74.5
74.5
74.5
149
149
149
149
149
74.5
149
74.5
149
74.5
74.5
74.5
149
74.5
149
74.5
74.5
74.5
149
74.5
74.5
149
74.5
74.5
149
74.5
74.5
149
74.5
74.5
149
74.5
74.5
149
74.5
149
74.5
74.5
74.5
74.5
74.5
74.5
74.5
74.5
74.5
74.5
74.5
74.5
74.5
149
74.5
74.5
74.5
74.5
74.5
74.5
74.5
74.5
74.5
149
74.5
149
74.5
149
74.5
149
74.5
149
74.5
149
74.5
149
74.5
149
74.5
149
74.5
149
74.5
149
74.5
74.5
74.5
74.5
74.5
74.5
74.5
74.5
74.5
74.5
74.5
74.5
74.5
74.5
74.5
74.5
74.5
74.5
74.5
74.5
74.5
74.5
74.5
74.5
149
149
149
149
74.5
74.5
74.5
74.5
74.5
149
149
74.5
74.5
74.5
74.5
74.5
74.5
74.5
74.5
74.5
74.5
74.5
74.5
74.5
74.5
74.5
74.5
74.5
74.5
74.5
74.5
74.5
74.5
74.5
74.5
74.5
74.5
74.5
149
149
149
149
149
74.5
74.5
74.5
74.5
74.5
74.5
74.5
74.5
74.5
74.5
74.5
74.5
149
149
149
149
149
149
149
149
149
149
149
149
149
149
149
149
149
149
149
149
74.5
74.5
74.5
74.5
74.5
74.5
74.5
74.5
149
149
149
149
149
149
149
149
149
74.5
74.5
74.5
74.5
74.5
74.5
74.5
74.5
74.5
74.5
74.5
74.5
74.5
149
149
149
74.5
74.5
74.5
74.5
74.5
74.5
74.5
74.5
74.5
74.5
74.5
74.5
74.5
74.5
149
149
149
149
149
149
149
149
149
149
149
149
149
149
149
149
149
149
149
149
149
149
149
149
149
149
74.5
74.5
74.5
74.5
74.5
74.5
74.5
74.5
74.5
74.5
74.5
74.5
74.5
74.5
74.5
74.5
74.5
74.5
74.5
74.5
74.5
)


972
(
0
0
107
107
107
107
107
107
107
107
107
107
107
107
107
107
107
0
0
0
0
0
0
0
53.5
53.5
53.5
53.5
53.5
53.5
53.5
53.5
53.5
53.5
53.5
53.5
53.5
53.5
53.5
53.5
53.5
53.5
53.5
53.5
53.5
53.5
53.5
53.5
53.5
53.5
53.5
53.5
53.5
53.5
53.5
53.5
53.5
53.5
53.5
53.5
53.5
53.5
53.5
53.5
53.5
53.5
53.5
53.5
53.5
53.5
53.5
53.5
53.5
53.5
53.5
53.5
53.5
53.5
53.5
53.5
53.5
53.5
53.5
53.5
53.5
53.5
53.5
53.5
53.5
53.5
53.5
53.5
53.5
53.5
53.5
53.5
53.5
53.5
53.5
53.5
53.5
53.5
53.5
53.5
53.5
53.5
53.5
53.5
107
107
53.5
107
107
107
107
107
107
107
107
107
53.5
107
107
107
107
107
107
107
107
107
107
107
107
107
53.5
53.5
53.5
107
107
107
107
107
107
107
107
107
107
107
107
107
107
107
107
107
107
107
107
107
107
107
107
107
107
107
107
53.5
53.5
53.5
107
53.5
53.5
107
53.5
53.5
107
53.5
53.5
107
53.5
107
107
107
107
107
53.5
107
53.5
107
53.5
53.5
107
107
107
107
53.5
53.5
53.5
107
107
107
107
53.5
53.5
53.5
107
107
107
107
107
107
107
107
107
107
107
107
107
107
107
107
107
107
53.5
53.5
53.5
53.5
53.5
53.5
53.5
53.5
53.5
53.5
53.5
53.5
107
107
107
107
107
107
107
53.5
53.5
107
107
107
107
107
107
107
107
107
107
107
107
107
107
107
107
107
107
107
107
107
107
107
107
107
107
107
107
107
107
107
53.5
53.5
107
53.5
53.5
107
53.5
53.5
53.5
53.5
107
53.5
53.5
107
53.5
53.5
53.5
53.5
107
53.5
53.5
53.5
53.5
107
53.5
53.5
107
53.5
53.5
53.5
53.5
107
53.5
53.5
53.5
107
53.5
53.5
107
53.5
53.5
107
53.5
53.5
53.5
53.5
53.5
107
107
107
107
107
107
107
107
107
53.5
107
53.5
53.5
53.5
53.5
53.5
53.5
53.5
107
107
107
53.5
53.5
53.5
53.5
53.5
53.5
53.5
53.5
53.5
53.5
53.5
107
107
107
53.5
107
107
107
53.5
107
107
107
53.5
107
107
107
53.5
107
107
107
53.5
107
107
107
53.5
107
107
107
53.5
107
107
107
53.5
107
107
107
53.5
107
107
107
53.5
107
107
107
53.5
53.5
53.5
53.5
53.5
53.5
53.5
53.5
53.5
53.5
53.5
53.5
53.5
53.5
53.5
53.5
53.5
53.5
53.5
53.5
53.5
53.5
53.5
53.5
53.5
53.5
53.5
53.5
53.5
53.5
53.5
53.5
53.5
53.5
107
53.5
53.5
107
107
107
107
107
107
107
107
53.5
53.5
53.5
53.5
53.5
53.5
53.5
53.5
53.5
53.5
107
107
107
107
53.5
53.5
53.5
53.5
53.5
53.5
53.5
53.5
53.5
53.5
53.5
53.5
53.5
107
107
107
107
107
107
107
107
107
107
53.5
53.5
53.5
53.5
53.5
53.5
107
107
107
107
107
107
107
107
107
107
107
107
107
107
107
107
107
107
107
107
107
107
107
107
107
107
107
107
107
53.5
53.5
53.5
53.5
53.5
53.5
53.5
53.5
53.5
107
107
107
107
107
107
107
107
107
107
107
107
53.5
53.5
53.5
53.5
53.5
53.5
53.5
53.5
53.5
53.5
53.5
53.5
53.5
53.5
53.5
107
107
107
107
107
107
107
107
107
107
107
107
107
107
107
107
107
107
53.5
53.5
53.5
53.5
107
107
107
107
107
107
53.5
53.5
53.5
53.5
107
107
107
107
107
107
107
107
107
107
107
107
107
107
107
107
107
107
107
107
107
107
107
107
107
107
107
107
107
107
107
107
107
107
107
107
107
107
107
107
107
107
107
107
107
107
107
107
107
107
107
107
53.5
53.5
53.5
53.5
53.5
53.5
53.5
53.5
53.5
53.5
53.5
53.5
53.5
53.5
53.5
53.5
53.5
53.5
53.5
53.5
53.5
53.5
53.5
53.5
53.5
53.5
53.5
53.5
53.5
53.5
53.5
53.5
53.5
53.5
53.5
53.5
53.5
53.5
53.5
53.5
53.5
53.5
53.5
53.5
53.5
53.5
53.5
53.5
53.5
53.5
53.5
53.5
53.5
53.5
53.5
107
107
107
53.5
53.5
53.5
53.5
53.5
53.5
53.5
53.5
107
107
107
107
107
53.5
107
53.5
107
53.5
53.5
53.5
107
53.5
107
53.5
53.5
53.5
107
53.5
53.5
107
53.5
53.5
107
53.5
53.5
107
53.5
53.5
107
53.5
53.5
107
53.5
107
53.5
53.5
53.5
53.5
53.5
53.5
53.5
53.5
53.5
53.5
53.5
53.5
53.5
107
53.5
53.5
53.5
53.5
53.5
53.5
53.5
53.5
53.5
107
53.5
107
53.5
107
53.5
107
53.5
107
53.5
107
53.5
107
53.5
107
53.5
107
53.5
107
53.5
107
53.5
53.5
53.5
53.5
53.5
53.5
53.5
53.5
53.5
53.5
53.5
53.5
53.5
53.5
53.5
53.5
53.5
53.5
53.5
53.5
53.5
53.5
53.5
53.5
107
107
107
107
53.5
53.5
53.5
53.5
53.5
107
107
53.5
53.5
53.5
53.5
53.5
53.5
53.5
53.5
53.5
53.5
53.5
53.5
53.5
53.5
53.5
53.5
53.5
53.5
53.5
53.5
53.5
53.5
53.5
53.5
53.5
53.5
53.5
107
107
107
107
107
53.5
53.5
53.5
53.5
53.5
53.5
53.5
53.5
53.5
53.5
53.5
53.5
107
107
107
107
107
107
107
107
107
107
107
107
107
107
107
107
107
107
107
107
53.5
53.5
53.5
53.5
53.5
53.5
53.5
53.5
107
107
107
107
107
107
107
107
107
53.5
53.5
53.5
53.5
53.5
53.5
53.5
53.5
53.5
53.5
53.5
53.5
53.5
107
107
107
53.5
53.5
53.5
53.5
53.5
53.5
53.5
53.5
53.5
53.5
53.5
53.5
53.5
53.5
107
107
107
107
107
107
107
107
107
107
107
107
107
107
107
107
107
107
107
107
107
107
107
107
107
107
53.5
53.5
53.5
53.5
53.5
53.5
53.5
53.5
53.5
53.5
53.5
53.5
53.5
53.5
53.5
53.5
53.5
53.5
53.5
53.5
53.5
)

)

End

Finalising parallel run
