/*---------------------------------------------------------------------------*\
  =========                 |
  \\      /  F ield         | OpenFOAM: The Open Source CFD Toolbox
   \\    /   O peration     | Website:  https://openfoam.org
    \\  /    A nd           | Version:  8
     \\/     M anipulation  |
\*---------------------------------------------------------------------------*/
/*   Windows 32 and 64 bit porting by blueCAPE: http://www.bluecape.com.pt   *\
|  Based on Windows porting (2.0.x v4) by Symscape: http://www.symscape.com   |
\*---------------------------------------------------------------------------*/
Build  : 8-53cd1468e263
Exec   : viewFactorsGen -region vegetation -parallel
Date   : Nov 13 2024
Time   : 09:43:45
Host   : "FOAM2"
PID    : 37976
I/O    : uncollated
Case   : C:/MetaFoam_Cases/CRVS_03
nProcs : 20
Slaves : 
19
(
"FOAM2.22876"
"FOAM2.37228"
"FOAM2.40956"
"FOAM2.41628"
"FOAM2.35808"
"FOAM2.37180"
"FOAM2.35540"
"FOAM2.33800"
"FOAM2.45508"
"FOAM2.45608"
"FOAM2.14244"
"FOAM2.39332"
"FOAM2.14216"
"FOAM2.17224"
"FOAM2.44128"
"FOAM2.43328"
"FOAM2.11448"
"FOAM2.46884"
"FOAM2.11200"
)

Pstream initialized with:
    floatTransfer      : 0
    nProcsSimpleSum    : 0
    commsType          : nonBlocking
    polling iterations : 0
SigFpe : Enabling floating point exception trapping (FOAM_SIGFPE).
fileModificationChecking : Monitoring run-time modified files using timeStampMaster (fileModificationSkew 10)
allowSystemOperations : Allowing user-supplied system call operations

// * * * * * * * * * * * * * * * * * * * * * * * * * * * * * * * * * * * * * //
Create time

Create mesh vegetation for time = 0

[0] 
Creating single cell mesh...
[1] 
Creating single cell mesh...
[2] 
Creating single cell mesh...
[16] 
Creating single cell mesh...
[5] 
Creating single cell mesh...
[4] 
Creating single cell mesh...
[19] 
Creating single cell mesh...
[3] 
Creating single cell mesh...
[17] 
Creating single cell mesh...
[7] 
Creating single cell mesh...
[13] 
Creating single cell mesh...
[18] 
Creating single cell mesh...
[10] 
Creating single cell mesh...
[6] 
Creating single cell mesh...
[8] 
Creating single cell mesh...
[15] 
Creating single cell mesh...
[12] 
Creating single cell mesh...
[14] 
Creating single cell mesh...
[9] 
Creating single cell mesh...
[11] 
Creating single cell mesh...
[11] 
Created single cell mesh...
[18] 
Created single cell mesh...
[17] 
Created single cell mesh...
[4] 
Created single cell mesh...
[16] 
Created single cell mesh...
[19] 
Created single cell mesh...
[13] 
Created single cell mesh...
[7] 
Created single cell mesh...
[5] 
Created single cell mesh...
[12] 
Created single cell mesh...
[3] 
Created single cell mesh...
[8] 
Created single cell mesh...
[14] 
Created single cell mesh...
[1] 
Created single cell mesh...
[15] 
Created single cell mesh...
[10] 
Created single cell mesh...
[0] 
Created single cell mesh...
[2] 
Created single cell mesh...
[6] 
Created single cell mesh...
[9] 
Created single cell mesh...

Total number of coarse faces: 12371
[0] 
View factor patches included in the calculation : 4(0 4 5 6)

Calculating view factors...
Writing view factor matrix...
F00: 4.82497e-29
F04: 0.2480423
F05: 0.32189025
F06: 0.2417965
F40: 0.059140167
F44: 0
F45: 0.37524464
F46: 0.17128028
F50: 0.066338371
F54: 0.32483394
F55: 0
F56: 0.24461127
F60: 0.067163202
F64: 0.20004494
F65: 0.3300288
F66: 0.091571906
End

Finalising parallel run
