/*---------------------------------------------------------------------------*\
  =========                 |
  \\      /  F ield         | OpenFOAM: The Open Source CFD Toolbox
   \\    /   O peration     | Website:  https://openfoam.org
    \\  /    A nd           | Version:  8
     \\/     M anipulation  |
\*---------------------------------------------------------------------------*/
/*   Windows 32 and 64 bit porting by blueCAPE: http://www.bluecape.com.pt   *\
|  Based on Windows porting (2.0.x v4) by Symscape: http://www.symscape.com   |
\*---------------------------------------------------------------------------*/
Build  : 8-53cd1468e263
Exec   : faceAgglomerate -region vegetation -parallel
Date   : Nov 14 2024
Time   : 13:09:55
Host   : "FOAM2"
PID    : 35040
I/O    : uncollated
Case   : C:/MetaFoam_Cases/UMCF_CRVS_05b
nProcs : 20
Slaves : 
19
(
"FOAM2.34848"
"FOAM2.46508"
"FOAM2.38044"
"FOAM2.45124"
"FOAM2.15760"
"FOAM2.38300"
"FOAM2.35400"
"FOAM2.45960"
"FOAM2.39088"
"FOAM2.44028"
"FOAM2.45932"
"FOAM2.42564"
"FOAM2.35392"
"FOAM2.2632"
"FOAM2.46252"
"FOAM2.44832"
"FOAM2.37968"
"FOAM2.38720"
"FOAM2.43208"
)

Pstream initialized with:
    floatTransfer      : 0
    nProcsSimpleSum    : 0
    commsType          : nonBlocking
    polling iterations : 0
SigFpe : Enabling floating point exception trapping (FOAM_SIGFPE).
fileModificationChecking : Monitoring run-time modified files using timeStampMaster (fileModificationSkew 10)
allowSystemOperations : Allowing user-supplied system call operations

// * * * * * * * * * * * * * * * * * * * * * * * * * * * * * * * * * * * * * //
Create time

Create mesh vegetation for time = 0


Agglomerating patch : left

Agglomerating patch : right

Agglomerating patch : back

Agglomerating patch : front

Agglomerating patch : top

Agglomerating patch : bottom

Agglomerating patch : air_to_vegetation

Writing facesAgglomeration
End

Finalising parallel run
