/*---------------------------------------------------------------------------*\
  =========                 |
  \\      /  F ield         | OpenFOAM: The Open Source CFD Toolbox
   \\    /   O peration     | Website:  https://openfoam.org
    \\  /    A nd           | Version:  8
     \\/     M anipulation  |
\*---------------------------------------------------------------------------*/
/*   Windows 32 and 64 bit porting by blueCAPE: http://www.bluecape.com.pt   *\
|  Based on Windows porting (2.0.x v4) by Symscape: http://www.symscape.com   |
\*---------------------------------------------------------------------------*/
Build  : 8-53cd1468e263
Exec   : blockMesh
Date   : Nov 14 2024
Time   : 13:08:36
Host   : "FOAM2"
PID    : 34612
I/O    : uncollated
Case   : C:/MetaFoam_Cases/UMCF_CRVS_05b
nProcs : 1
SigFpe : Enabling floating point exception trapping (FOAM_SIGFPE).
fileModificationChecking : Monitoring run-time modified files using timeStampMaster (fileModificationSkew 10)
allowSystemOperations : Allowing user-supplied system call operations

// * * * * * * * * * * * * * * * * * * * * * * * * * * * * * * * * * * * * * //
Create time

Creating block mesh from
    "system/blockMeshDict"
Creating block edges
No non-planar block faces defined
Creating topology blocks
Creating topology patches

Creating block mesh topology

Check topology

	Basic statistics
		Number of internal faces : 0
		Number of boundary faces : 6
		Number of defined boundary faces : 6
		Number of undefined boundary faces : 0
	Checking patch -> block consistency

Creating block offsets
Creating merge list .

Creating polyMesh from blockMesh
Creating patches
Creating cells
Creating points with scale 1
    Block 0 cell size :
        i : 15.605135
        j : 16.971967 .. 16.971967
        k : 12.078823

Writing polyMesh
----------------
Mesh Information
----------------
  boundingBox: (93.8 161.27946 -1.6298806e-11) (127.74393 223.7 12.078823)
  nPoints: 30
  nCells: 8
  nFaces: 38
  nInternalFaces: 10
----------------
Patches
----------------
  patch 0 (start: 10 size: 2) name: left
  patch 1 (start: 12 size: 2) name: right
  patch 2 (start: 14 size: 4) name: back
  patch 3 (start: 18 size: 4) name: front
  patch 4 (start: 22 size: 8) name: bottom
  patch 5 (start: 30 size: 8) name: top

End

/*---------------------------------------------------------------------------*\
  =========                 |
  \\      /  F ield         | OpenFOAM: The Open Source CFD Toolbox
   \\    /   O peration     | Website:  https://openfoam.org
    \\  /    A nd           | Version:  8
     \\/     M anipulation  |
\*---------------------------------------------------------------------------*/
/*   Windows 32 and 64 bit porting by blueCAPE: http://www.bluecape.com.pt   *\
|  Based on Windows porting (2.0.x v4) by Symscape: http://www.symscape.com   |
\*---------------------------------------------------------------------------*/
Build  : 8-53cd1468e263
Exec   : surfaceFeatures
Date   : Nov 14 2024
Time   : 13:08:36
Host   : "FOAM2"
PID    : 40376
I/O    : uncollated
Case   : C:/MetaFoam_Cases/UMCF_CRVS_05b
nProcs : 1
SigFpe : Enabling floating point exception trapping (FOAM_SIGFPE).
fileModificationChecking : Monitoring run-time modified files using timeStampMaster (fileModificationSkew 10)
allowSystemOperations : Allowing user-supplied system call operations

// * * * * * * * * * * * * * * * * * * * * * * * * * * * * * * * * * * * * * //
Create time

Reading surfaceFeaturesDict

Surface            : "tower.stl"


Feature line extraction is only valid on closed manifold surfaces.
Statistics:
Triangles    : 29676
Vertices     : 14844
Bounding Box : (102 165.97946 -1.6298806e-11) (115.24946 219 8.4970465)


Constructing feature set from included angle 150
Selecting edges purely based on geometric tests: no

Initial feature set:
    feature points : 24
    feature edges  : 1056
    of which
        region edges   : 0
        external edges : 1056
        internal edges : 0


Final feature set:
points      : 1044
edges       : 1056
boundingBox : (102 165.97946 -1.6298806e-11) (115.24946 219 8.4970465)
point classification :
    convex feature points          :       24
    concave feature points         :        0
    mixed feature points           :        0
    other (non-feature) points     :     1020
edge classification :
    external (convex angle) edges  :     1056
    internal (concave angle) edges :        0
    flat region edges              :        0
    open edges                     :        0
    multiply connected edges       :        0

Writing extendedFeatureEdgeMesh to "constant/extendedFeatureEdgeMesh/tower.extendedFeatureEdgeMesh"

Writing extendedEdgeMesh components to "C:/MetaFoam_Cases/UMCF_CRVS_05b/constant/extendedFeatureEdgeMesh/tower"

Writing featureEdgeMesh to "constant/triSurface/tower.eMesh"

ExecutionTime = 0.203 s  ClockTime = 0 s

End

/*---------------------------------------------------------------------------*\
  =========                 |
  \\      /  F ield         | OpenFOAM: The Open Source CFD Toolbox
   \\    /   O peration     | Website:  https://openfoam.org
    \\  /    A nd           | Version:  8
     \\/     M anipulation  |
\*---------------------------------------------------------------------------*/
/*   Windows 32 and 64 bit porting by blueCAPE: http://www.bluecape.com.pt   *\
|  Based on Windows porting (2.0.x v4) by Symscape: http://www.symscape.com   |
\*---------------------------------------------------------------------------*/
Build  : 8-53cd1468e263
Exec   : snappyHexMesh -overwrite
Date   : Nov 14 2024
Time   : 13:08:36
Host   : "FOAM2"
PID    : 34808
I/O    : uncollated
Case   : C:/MetaFoam_Cases/UMCF_CRVS_05b
nProcs : 1
SigFpe : Enabling floating point exception trapping (FOAM_SIGFPE).
fileModificationChecking : Monitoring run-time modified files using timeStampMaster (fileModificationSkew 10)
allowSystemOperations : Allowing user-supplied system call operations

// * * * * * * * * * * * * * * * * * * * * * * * * * * * * * * * * * * * * * //
Create time

Create mesh for time = 0

Read mesh in = 0 s

Overall mesh bounding box  : (93.8 161.27946 -1.6298806e-11) (127.74393 223.7 12.078823)
Relative tolerance         : 1e-06
Absolute matching distance : 7.2072271e-05

Reading refinement surfaces.
Read refinement surfaces in = 0.125 s

Reading refinement shells.
Refinement level 2 for all cells inside refinementBox
Refinement level according to distance to vegetation
    level 5 for all cells within 1 metre.
    level 4 for all cells within 2 metre.
Refinement level according to distance to tower
    level 4 for all cells within 1 metre.
    level 2 for all cells within 3 metre.
Read refinement shells in = 0 s

Setting refinement level of surface to be consistent with shells.
Checked shell refinement in = 0 s

Reading features.
Read edgeMesh tower.eMesh
    points      : 1044
    edges       : 1056
    boundingBox : (102 165.97946 -1.6298806e-11) (115.24946 219 8.4970465)

Refinement level according to distance to "tower.eMesh" (1044 points, 1056 edges).
    level 4 for all cells within 0 metre.
Read features in = 0 s


Determining initial surface intersections
-----------------------------------------

Edge intersection testing:
    Number of edges             : 38
    Number of edges to retest   : 38
    Number of intersected edges : 13
Calculated surface intersections in = 0.031 s

Initial mesh : cells:8  faces:38  points:30
Cells per refinement level:
    0	8

Adding patches for surface regions
----------------------------------

Patch Type                Region                        
----- ----                ------                        
tower:

6     wall                tower                         

Added patches in = 0 s

Selecting decompositionMethod none
Layer thickness specified as first layer and expansion ratio.

Refinement phase
----------------

Found point (109.37197 192.48973 9.5788225) in cell 1 on processor 0

Feature refinement iteration 0
------------------------------

Marked for refinement due to explicit features             : 8 cells.
Determined cells to refine in = 0 s
Selected for feature refinement : 8 cells (out of 8)
Edge intersection testing:
    Number of edges             : 248
    Number of edges to retest   : 248
    Number of intersected edges : 30
Refined mesh in = 0 s
After refinement feature refinement iteration 0 : cells:64  faces:248  points:135
Cells per refinement level:
    0	0
    1	64

Feature refinement iteration 1
------------------------------

Marked for refinement due to explicit features             : 36 cells.
Determined cells to refine in = 0 s
Selected for feature refinement : 36 cells (out of 64)
Edge intersection testing:
    Number of edges             : 1148
    Number of edges to retest   : 1138
    Number of intersected edges : 126
Refined mesh in = 0 s
After refinement feature refinement iteration 1 : cells:316  faces:1148  points:552
Cells per refinement level:
    0	0
    1	28
    2	288

Feature refinement iteration 2
------------------------------

Marked for refinement due to explicit features             : 83 cells.
Determined cells to refine in = 0.016 s
Selected for feature refinement : 107 cells (out of 316)
Edge intersection testing:
    Number of edges             : 3890
    Number of edges to retest   : 3786
    Number of intersected edges : 367
Refined mesh in = 0 s
After refinement feature refinement iteration 2 : cells:1065  faces:3890  points:1852
Cells per refinement level:
    0	0
    1	4
    2	397
    3	664

Feature refinement iteration 3
------------------------------

Marked for refinement due to explicit features             : 179 cells.
Determined cells to refine in = 0.015 s
Selected for feature refinement : 289 cells (out of 1065)
Edge intersection testing:
    Number of edges             : 11174
    Number of edges to retest   : 10631
    Number of intersected edges : 1036
Refined mesh in = 0.016 s
After refinement feature refinement iteration 3 : cells:3088  faces:11174  points:5208
Cells per refinement level:
    0	0
    1	2
    2	304
    3	1358
    4	1424

Feature refinement iteration 4
------------------------------

Marked for refinement due to explicit features             : 0 cells.
Determined cells to refine in = 0.016 s
Selected for feature refinement : 0 cells (out of 3088)
Stopping refining since too few cells selected.


Surface refinement iteration 0
------------------------------

Marked for refinement due to surface intersection          : 31 cells.
Marked for refinement due to curvature/regions             : 484 cells.
Determined cells to refine in = 0 s
Selected for refinement : 655 cells (out of 3088)
Edge intersection testing:
    Number of edges             : 27152
    Number of edges to retest   : 23276
    Number of intersected edges : 2994
Refined mesh in = 0.062 s
After refinement surface refinement iteration 0 : cells:7673  faces:27152  points:12216
Cells per refinement level:
    0	0
    1	2
    2	271
    3	1344
    4	3304
    5	2752

Surface refinement iteration 1
------------------------------

Marked for refinement due to surface intersection          : 0 cells.
Marked for refinement due to curvature/regions             : 340 cells.
Determined cells to refine in = 0 s
Selected for refinement : 390 cells (out of 7673)
Edge intersection testing:
    Number of edges             : 36476
    Number of edges to retest   : 19407
    Number of intersected edges : 4161
Refined mesh in = 0.063 s
After refinement surface refinement iteration 1 : cells:10403  faces:36476  points:16109
Cells per refinement level:
    0	0
    1	2
    2	265
    3	1306
    4	3694
    5	5136

Surface refinement iteration 2
------------------------------

Marked for refinement due to surface intersection          : 0 cells.
Marked for refinement due to curvature/regions             : 30 cells.
Determined cells to refine in = 0.015 s
Selected for refinement : 52 cells (out of 10403)
Edge intersection testing:
    Number of edges             : 37700
    Number of edges to retest   : 3138
    Number of intersected edges : 4297
Refined mesh in = 0.047 s
After refinement surface refinement iteration 2 : cells:10767  faces:37700  points:16617
Cells per refinement level:
    0	0
    1	2
    2	263
    3	1302
    4	3824
    5	5376

Surface refinement iteration 3
------------------------------

Marked for refinement due to surface intersection          : 0 cells.
Marked for refinement due to curvature/regions             : 0 cells.
Determined cells to refine in = 0 s
Selected for refinement : 0 cells (out of 10767)
Stopping refining since too few cells selected.


Removing mesh beyond surface intersections
------------------------------------------

Found point (109.37197 192.48973 9.5788225) in global region 0 out of 4 regions.
Keeping all cells in region 0 containing point (109.37197 192.48973 9.5788225)
Selected for keeping : 9419 cells.
Edge intersection testing:
    Number of edges             : 35030
    Number of edges to retest   : 3393
    Number of intersected edges : 4297

Shell refinement iteration 0
----------------------------

Marked for refinement due to distance to explicit features : 0 cells.
Marked for refinement due to refinement shells             : 293 cells.
Determined cells to refine in = 0.125 s
Selected for internal refinement : 2025 cells (out of 9419)
Edge intersection testing:
    Number of edges             : 80648
    Number of edges to retest   : 78599
    Number of intersected edges : 6314
Refined mesh in = 0.156 s
After refinement shell refinement iteration 0 : cells:23594  faces:80648  points:33419
Cells per refinement level:
    0	0
    1	0
    2	128
    3	1815
    4	7071
    5	14580

Shell refinement iteration 1
----------------------------

Marked for refinement due to distance to explicit features : 0 cells.
Marked for refinement due to refinement shells             : 804 cells.
Determined cells to refine in = 0.016 s
Selected for internal refinement : 1307 cells (out of 23594)
Edge intersection testing:
    Number of edges             : 109751
    Number of edges to retest   : 59082
    Number of intersected edges : 6206
Refined mesh in = 0.172 s
After refinement shell refinement iteration 1 : cells:32743  faces:109751  points:44288
Cells per refinement level:
    0	0
    1	0
    2	98
    3	1715
    4	8854
    5	22076

Shell refinement iteration 2
----------------------------

Marked for refinement due to distance to explicit features : 0 cells.
Marked for refinement due to refinement shells             : 978 cells.
Determined cells to refine in = 0.031 s
Selected for internal refinement : 1107 cells (out of 32743)
Edge intersection testing:
    Number of edges             : 134891
    Number of edges to retest   : 40439
    Number of intersected edges : 6206
Refined mesh in = 0.172 s
After refinement shell refinement iteration 2 : cells:40492  faces:134891  points:53924
Cells per refinement level:
    0	0
    1	0
    2	88
    3	1656
    4	9008
    5	29740

Shell refinement iteration 3
----------------------------

Marked for refinement due to distance to explicit features : 0 cells.
Marked for refinement due to refinement shells             : 39 cells.
Determined cells to refine in = 0.031 s
Selected for internal refinement : 118 cells (out of 40492)
Edge intersection testing:
    Number of edges             : 137393
    Number of edges to retest   : 8808
    Number of intersected edges : 6206
Refined mesh in = 0.156 s
After refinement shell refinement iteration 3 : cells:41318  faces:137393  points:54774
Cells per refinement level:
    0	0
    1	0
    2	83
    3	1622
    4	9561
    5	30052

Shell refinement iteration 4
----------------------------

Marked for refinement due to distance to explicit features : 0 cells.
Marked for refinement due to refinement shells             : 0 cells.
Determined cells to refine in = 0.032 s
Selected for internal refinement : 15 cells (out of 41318)
Edge intersection testing:
    Number of edges             : 137708
    Number of edges to retest   : 1310
    Number of intersected edges : 6206
Refined mesh in = 0.156 s
After refinement shell refinement iteration 4 : cells:41423  faces:137708  points:54879
Cells per refinement level:
    0	0
    1	0
    2	70
    3	1724
    4	9577
    5	30052

Shell refinement iteration 5
----------------------------

Marked for refinement due to distance to explicit features : 0 cells.
Marked for refinement due to refinement shells             : 0 cells.
Determined cells to refine in = 0.031 s
Selected for internal refinement : 1 cells (out of 41423)
Edge intersection testing:
    Number of edges             : 137726
    Number of edges to retest   : 103
    Number of intersected edges : 6206
Refined mesh in = 0.156 s
After refinement shell refinement iteration 5 : cells:41430  faces:137726  points:54883
Cells per refinement level:
    0	0
    1	0
    2	69
    3	1732
    4	9577
    5	30052

Shell refinement iteration 6
----------------------------

Marked for refinement due to distance to explicit features : 0 cells.
Marked for refinement due to refinement shells             : 0 cells.
Determined cells to refine in = 0.032 s
Selected for internal refinement : 0 cells (out of 41430)
Stopping refining since too few cells selected.


Dangling coarse cells refinement iteration 0
--------------------------------------------

Determined cells to refine in = 0 s
Selected for refinement : 16 cells (out of 41430)
Edge intersection testing:
    Number of edges             : 137960
    Number of edges to retest   : 1971
    Number of intersected edges : 6206
Refined mesh in = 0.156 s
After refinement coarse cell refinement iteration 0 : cells:41542  faces:137960  points:54913
Cells per refinement level:
    0	0
    1	0
    2	69
    3	1729
    4	9588
    5	30156

Dangling coarse cells refinement iteration 1
--------------------------------------------

Determined cells to refine in = 0 s
Selected for refinement : 4 cells (out of 41542)
Edge intersection testing:
    Number of edges             : 138014
    Number of edges to retest   : 440
    Number of intersected edges : 6206
Refined mesh in = 0.172 s
After refinement coarse cell refinement iteration 1 : cells:41570  faces:138014  points:54919
Cells per refinement level:
    0	0
    1	0
    2	69
    3	1729
    4	9584
    5	30188

Dangling coarse cells refinement iteration 2
--------------------------------------------

Determined cells to refine in = 0 s
Selected for refinement : 0 cells (out of 41570)
Stopping refining since too few cells selected.


Dangling coarse cells refinement iteration 0
--------------------------------------------

Determined cells to refine in = 0 s
Selected for refinement : 0 cells (out of 41570)
Stopping refining since too few cells selected.


Splitting mesh at surface intersections
---------------------------------------

Introducing baffles for 6206 faces that are intersected by the surface.

Edge intersection testing:
    Number of edges             : 143410
    Number of edges to retest   : 43703
    Number of intersected edges : 11238
Created baffles in = 0.156 s


After introducing baffles : cells:41570  faces:143410  points:54919
Cells per refinement level:
    0	0
    1	0
    2	69
    3	1729
    4	9584
    5	30188

Introducing baffles to block off problem cells
----------------------------------------------

markFacesOnProblemCells : marked 4859 additional internal faces to be converted into baffles.
Analyzed problem cells in = 0.109 s


Introducing baffles to delete problem cells.

Edge intersection testing:
    Number of edges             : 148269
    Number of edges to retest   : 21365
    Number of intersected edges : 11238
Created baffles in = 0.157 s


After introducing baffles : cells:41570  faces:148269  points:54919
Cells per refinement level:
    0	0
    1	0
    2	69
    3	1729
    4	9584
    5	30188

Remove unreachable sections of mesh
-----------------------------------

Keeping all cells in region 0 containing point (109.37197 192.48973 9.5788225)
Selected for keeping : 33240 cells.
Edge intersection testing:
    Number of edges             : 112080
    Number of edges to retest   : 0
    Number of intersected edges : 5284
Split mesh in = 0.343 s


After subsetting : cells:33240  faces:112080  points:46015
Cells per refinement level:
    0	0
    1	0
    2	69
    3	1729
    4	8664
    5	22778

Handling cells with snap problems
---------------------------------

Introducing baffles for 5284 faces that are intersected by the surface.

Edge intersection testing:
    Number of edges             : 112080
    Number of edges to retest   : 21872
    Number of intersected edges : 5284
Created baffles in = 0.094 s


After introducing baffles : cells:33240  faces:112080  points:46015
Cells per refinement level:
    0	0
    1	0
    2	69
    3	1729
    4	8664
    5	22778

Introducing baffles to block off problem cells
----------------------------------------------

markFacesOnProblemCells : marked 0 additional internal faces to be converted into baffles.
Analyzed problem cells in = 0.078 s


Introducing baffles to delete problem cells.

Edge intersection testing:
    Number of edges             : 112080
    Number of edges to retest   : 0
    Number of intersected edges : 5284
Created baffles in = 0.078 s


After introducing baffles : cells:33240  faces:112080  points:46015
Cells per refinement level:
    0	0
    1	0
    2	69
    3	1729
    4	8664
    5	22778

Remove unreachable sections of mesh
-----------------------------------

Keeping all cells in region 0 containing point (109.37197 192.48973 9.5788225)
Selected for keeping : 33240 cells.
Edge intersection testing:
    Number of edges             : 112080
    Number of edges to retest   : 0
    Number of intersected edges : 5284
Split mesh in = 0.266 s


After subsetting : cells:33240  faces:112080  points:46015
Cells per refinement level:
    0	0
    1	0
    2	69
    3	1729
    4	8664
    5	22778

Merge free-standing baffles
---------------------------

freeStandingBaffles : detected 0 free-standing baffles out of 0

Detected free-standing baffles : 0
Merged free-standing baffles in = 0.031 s


dupNonManifoldPoints : Found : 0 non-manifold points (out of 46015)
Edge intersection testing:
    Number of edges             : 112080
    Number of edges to retest   : 0
    Number of intersected edges : 5284
Detected unsplittable baffles : 0

Merge refined boundary faces
----------------------------

Merging 130 sets of faces.

Edge intersection testing:
    Number of edges             : 111942
    Number of edges to retest   : 792
    Number of intersected edges : 5146

Undo iteration 0
----------------
Checking faces in error :
    non-orthogonality > 65  degrees                        : 0
    faces with face pyramid volume < 1e-13                 : 0
    faces with concavity > 80  degrees                     : 0
    faces with skewness > 4   (internal) or 4   (boundary) : 0
    faces with interpolation weights (0..1)  < 0.05        : 0
    faces with volume ratio of neighbour cells < 0.01      : 0
    faces on cells with determinant < 0.001                : 0

Merging all points on surface that
- are used by only two boundary faces and
- make an angle with a cosine of more than 0.70710678.

Removing 127 straight edge points ...

Edge intersection testing:
    Number of edges             : 111942
    Number of edges to retest   : 741
    Number of intersected edges : 5146

Undo iteration 0
----------------
Checking faces in error :
    non-orthogonality > 65  degrees                        : 0
    faces with face pyramid volume < 1e-13                 : 0
    faces with concavity > 80  degrees                     : 0
    faces with skewness > 4   (internal) or 4   (boundary) : 0
    faces with interpolation weights (0..1)  < 0.05        : 0
    faces with volume ratio of neighbour cells < 0.01      : 0
    faces on cells with determinant < 0.001                : 0
Refined mesh : cells:33240  faces:111942  points:45884
Cells per refinement level:
    0	0
    1	0
    2	69
    3	1729
    4	8664
    5	22778
Writing mesh to time constant
Wrote mesh in = 1.563 s.
Mesh refined in = 4.719 s.

Morphing phase
--------------


Snapping to features in 20 iterations ...
Constructing mesh displacer ...
Using mesh parameters 
{
    maxNonOrtho     65;
    maxBoundarySkewness 4;
    maxInternalSkewness 4;
    maxConcave      80;
    minVol          1e-13;
    minTetQuality   -1e+30;
    minArea         -1;
    minTwist        -1e+30;
    minDeterminant  0.001;
    minFaceWeight   0.05;
    minVolRatio     0.01;
    minTriangleTwist -1;
    nSmoothScale    4;
    errorReduction  0.75;
    relaxed
    {
        maxNonOrtho     75;
    }
}


Checking initial mesh ...
Checking faces in error :
    non-orthogonality > 65  degrees                        : 0
    faces with face pyramid volume < 1e-13                 : 0
    faces with concavity > 80  degrees                     : 0
    faces with skewness > 4   (internal) or 4   (boundary) : 0
    faces with interpolation weights (0..1)  < 0.05        : 0
    faces with volume ratio of neighbour cells < 0.01      : 0
    faces on cells with determinant < 0.001                : 0
Detected 0 illegal faces (concave, zero area or negative cell pyramid volume)
Checked initial mesh in = 0.078 s


Smoothing patch points ...
Smoothing iteration 0
Found 0 non-manifold point(s).

Scaling iteration 0
Moving mesh using displacement scaling : min:1  max:1
Checking faces in error :
    non-orthogonality > 65  degrees                        : 0
    faces with face pyramid volume < 1e-13                 : 0
    faces with concavity > 80  degrees                     : 0
    faces with skewness > 4   (internal) or 4   (boundary) : 0
    faces with interpolation weights (0..1)  < 0.05        : 0
    faces with volume ratio of neighbour cells < 0.01      : 0
    faces on cells with determinant < 0.001                : 0
Successfully moved mesh

Smoothing iteration 1
Found 0 non-manifold point(s).

Scaling iteration 0
Moving mesh using displacement scaling : min:1  max:1
Checking faces in error :
    non-orthogonality > 65  degrees                        : 0
    faces with face pyramid volume < 1e-13                 : 0
    faces with concavity > 80  degrees                     : 0
    faces with skewness > 4   (internal) or 4   (boundary) : 0
    faces with interpolation weights (0..1)  < 0.05        : 0
    faces with volume ratio of neighbour cells < 0.01      : 0
    faces on cells with determinant < 0.001                : 0
Successfully moved mesh

Smoothing iteration 2
Found 0 non-manifold point(s).

Scaling iteration 0
Moving mesh using displacement scaling : min:1  max:1
Checking faces in error :
    non-orthogonality > 65  degrees                        : 0
    faces with face pyramid volume < 1e-13                 : 0
    faces with concavity > 80  degrees                     : 0
    faces with skewness > 4   (internal) or 4   (boundary) : 0
    faces with interpolation weights (0..1)  < 0.05        : 0
    faces with volume ratio of neighbour cells < 0.01      : 0
    faces on cells with determinant < 0.001                : 0
Successfully moved mesh

Patch points smoothed in = 0.25 s



Morph iteration 0
-----------------
Calculating patchDisplacement as distance to nearest surface point ...
Wanted displacement : average:0.14315325 min:4.8041584e-21 max:0.59088384
Calculated surface displacement in = 0.016 s


Detecting near surfaces ...
Overriding nearest with intersection of close gaps at 0 out of 5558 points.
Overriding displacement on features :
   implicit features    : false
   explicit features    : true
   multi-patch features : false

Detected 0 baffle edges out of 10813 edges.
Initially selected 732 points out of 5558 for reverse attraction.
Selected 1875 points out of 5558 for reverse attraction.
Stringing feature edges : changed 15 points
Stringing feature edges : changed 0 points
Attraction:
     linear   : max:(0 -0.59088384 0) avg:(0.056754428 -0.012693381 -0.03150862)
     feature  : max:(0.39774255 -0.32683324 0.22198393) avg:(0.017071809 -0.0017776812 0.002774862)
Feature analysis : total master points:5558 attraction to :
    feature point   : 39
    feature edge    : 684
    nearest surface : 0
    rest            : 4835

--> FOAM Warning : Displacement (0.0009582993 0.0076760195 0) at mesh point 130 coord (114.86614 172.84648 3.0198878) points through the surrounding patch faces
Smoothing displacement ...
Iteration 0
Iteration 10
Iteration 20
Iteration 30
Iteration 40
Iteration 50
Iteration 60
Iteration 70
Displacement smoothed in = 0.218 s


Moving mesh ...

Iteration 0
Moving mesh using displacement scaling : min:1  max:1
Checking faces in error :
    non-orthogonality > 65  degrees                        : 0
    faces with face pyramid volume < 1e-13                 : 0
    faces with concavity > 80  degrees                     : 0
    faces with skewness > 4   (internal) or 4   (boundary) : 0
    faces with interpolation weights (0..1)  < 0.05        : 0
    faces with volume ratio of neighbour cells < 0.01      : 0
    faces on cells with determinant < 0.001                : 0
Successfully moved mesh
Moved mesh in = 0.078 s



Morph iteration 1
-----------------
Calculating patchDisplacement as distance to nearest surface point ...
Wanted displacement : average:0.13772203 min:4.8041584e-21 max:0.56859572
Calculated surface displacement in = 0 s


Detecting near surfaces ...
Overriding nearest with intersection of close gaps at 0 out of 5558 points.
Overriding displacement on features :
   implicit features    : false
   explicit features    : true
   multi-patch features : false

Detected 0 baffle edges out of 10813 edges.
Initially selected 732 points out of 5558 for reverse attraction.
Selected 1875 points out of 5558 for reverse attraction.
Stringing feature edges : changed 15 points
Stringing feature edges : changed 0 points
Attraction:
     linear   : max:(0 -0.56859572 0) avg:(0.054524337 -0.012117368 -0.030290054)
     feature  : max:(0.39674819 -0.32601616 0.21088473) avg:(0.016733338 -0.0017153496 0.0028275513)
Feature analysis : total master points:5558 attraction to :
    feature point   : 39
    feature edge    : 684
    nearest surface : 0
    rest            : 4835

--> FOAM Warning : Displacement (0.0038236142 0.014584437 0) at mesh point 130 coord (114.8671 172.85416 3.0198878) points through the surrounding patch faces
Smoothing displacement ...
Iteration 0
Iteration 10
Iteration 20
Iteration 30
Iteration 40
Iteration 50
Iteration 60
Iteration 70
Displacement smoothed in = 0.219 s


Moving mesh ...

Iteration 0
Moving mesh using displacement scaling : min:1  max:1
Checking faces in error :
    non-orthogonality > 65  degrees                        : 0
    faces with face pyramid volume < 1e-13                 : 0
    faces with concavity > 80  degrees                     : 0
    faces with skewness > 4   (internal) or 4   (boundary) : 0
    faces with interpolation weights (0..1)  < 0.05        : 0
    faces with volume ratio of neighbour cells < 0.01      : 0
    faces on cells with determinant < 0.001                : 0
Successfully moved mesh
Moved mesh in = 0.078 s



Morph iteration 2
-----------------
Calculating patchDisplacement as distance to nearest surface point ...
Wanted displacement : average:0.12720126 min:4.8041584e-21 max:0.52481698
Calculated surface displacement in = 0 s


Detecting near surfaces ...
Overriding nearest with intersection of close gaps at 0 out of 5558 points.
Overriding displacement on features :
   implicit features    : false
   explicit features    : true
   multi-patch features : false

Detected 0 baffle edges out of 10813 edges.
Initially selected 736 points out of 5558 for reverse attraction.
Selected 1885 points out of 5558 for reverse attraction.
Stringing feature edges : changed 15 points
Stringing feature edges : changed 0 points
Attraction:
     linear   : max:(0 -0.52481698 0) avg:(0.050144929 -0.011011764 -0.027943104)
     feature  : max:(0.39278071 -0.322756 0.18979626) avg:(0.016032508 -0.001594081 0.0029066406)
Feature analysis : total master points:5558 attraction to :
    feature point   : 39
    feature edge    : 684
    nearest surface : 0
    rest            : 4835

--> FOAM Warning : Displacement (0.0085171006 0.01968899 0) at mesh point 130 coord (114.87092 172.86874 3.0198878) points through the surrounding patch faces
Smoothing displacement ...
Iteration 0
Iteration 10
Iteration 20
Iteration 30
Iteration 40
Iteration 50
Iteration 60
Iteration 70
Displacement smoothed in = 0.219 s


Moving mesh ...

Iteration 0
Moving mesh using displacement scaling : min:1  max:1
Checking faces in error :
    non-orthogonality > 65  degrees                        : 0
    faces with face pyramid volume < 1e-13                 : 0
    faces with concavity > 80  degrees                     : 0
    faces with skewness > 4   (internal) or 4   (boundary) : 0
    faces with interpolation weights (0..1)  < 0.05        : 0
    faces with volume ratio of neighbour cells < 0.01      : 0
    faces on cells with determinant < 0.001                : 0
Successfully moved mesh
Moved mesh in = 0.078 s



Morph iteration 3
-----------------
Calculating patchDisplacement as distance to nearest surface point ...
Wanted displacement : average:0.11249431 min:4.8041584e-21 max:0.46641102
Calculated surface displacement in = 0.016 s


Detecting near surfaces ...
Overriding nearest with intersection of close gaps at 0 out of 5558 points.
Overriding displacement on features :
   implicit features    : false
   explicit features    : true
   multi-patch features : false

Detected 0 baffle edges out of 10813 edges.
Initially selected 738 points out of 5558 for reverse attraction.
Selected 1885 points out of 5558 for reverse attraction.
Stringing feature edges : changed 18 points
Stringing feature edges : changed 0 points
Attraction:
     linear   : max:(0 -0.46641102 0) avg:(0.043981909 -0.0094993331 -0.02470444)
     feature  : max:(0.38394314 -0.31549399 0.16132683) avg:(0.014984287 -0.001424235 0.0030397254)
Feature analysis : total master points:5558 attraction to :
    feature point   : 39
    feature edge    : 687
    nearest surface : 0
    rest            : 4832

--> FOAM Warning : Displacement (0.014800828 0.022314189 0) at mesh point 130 coord (114.87944 172.88843 3.0198878) points through the surrounding patch faces
Smoothing displacement ...
Iteration 0
Iteration 10
Iteration 20
Iteration 30
Iteration 40
Iteration 50
Iteration 60
Iteration 70
Displacement smoothed in = 0.203 s


Moving mesh ...

Iteration 0
Moving mesh using displacement scaling : min:1  max:1
Checking faces in error :
    non-orthogonality > 65  degrees                        : 0
    faces with face pyramid volume < 1e-13                 : 0
    faces with concavity > 80  degrees                     : 0
    faces with skewness > 4   (internal) or 4   (boundary) : 0
    faces with interpolation weights (0..1)  < 0.05        : 0
    faces with volume ratio of neighbour cells < 0.01      : 0
    faces on cells with determinant < 0.001                : 0
Successfully moved mesh
Moved mesh in = 0.078 s



Morph iteration 4
-----------------
Calculating patchDisplacement as distance to nearest surface point ...
Wanted displacement : average:0.095021619 min:4.8041584e-21 max:0.39815157
Calculated surface displacement in = 0 s


Detecting near surfaces ...
Overriding nearest with intersection of close gaps at 0 out of 5558 points.
Overriding displacement on features :
   implicit features    : false
   explicit features    : true
   multi-patch features : false

Detected 0 baffle edges out of 10813 edges.
Initially selected 738 points out of 5558 for reverse attraction.
Selected 1878 points out of 5558 for reverse attraction.
Stringing feature edges : changed 18 points
Stringing feature edges : changed 0 points
Attraction:
     linear   : max:(0 -0.39815157 -4.4408921e-16) avg:(0.036622159 -0.007751771 -0.020918297)
     feature  : max:(0.36858542 -0.30287423 0.12906147) avg:(0.013655069 -0.0012218782 0.0030655507)
Feature analysis : total master points:5558 attraction to :
    feature point   : 39
    feature edge    : 687
    nearest surface : 0
    rest            : 4832

--> FOAM Warning : Displacement (-0.0027292287 -0.00026500278 -0.00013745501) at mesh point 5135 coord (102.12861 215.81616 5.2759634) points through the surrounding patch faces
Smoothing displacement ...
Iteration 0
Iteration 10
Iteration 20
Iteration 30
Iteration 40
Iteration 50
Iteration 60
Iteration 70
Displacement smoothed in = 0.219 s


Moving mesh ...

Iteration 0
Moving mesh using displacement scaling : min:1  max:1
Checking faces in error :
    non-orthogonality > 65  degrees                        : 0
    faces with face pyramid volume < 1e-13                 : 0
    faces with concavity > 80  degrees                     : 0
    faces with skewness > 4   (internal) or 4   (boundary) : 0
    faces with interpolation weights (0..1)  < 0.05        : 0
    faces with volume ratio of neighbour cells < 0.01      : 0
    faces on cells with determinant < 0.001                : 0
Successfully moved mesh
Moved mesh in = 0.078 s



Morph iteration 5
-----------------
Calculating patchDisplacement as distance to nearest surface point ...
Wanted displacement : average:0.076509603 min:4.8041584e-21 max:0.32471255
Calculated surface displacement in = 0 s


Detecting near surfaces ...
Overriding nearest with intersection of close gaps at 0 out of 5558 points.
Overriding displacement on features :
   implicit features    : false
   explicit features    : true
   multi-patch features : false

Detected 0 baffle edges out of 10813 edges.
Initially selected 738 points out of 5558 for reverse attraction.
Selected 1875 points out of 5558 for reverse attraction.
Stringing feature edges : changed 18 points
Stringing feature edges : changed 0 points
Attraction:
     linear   : max:(0 -0.32471255 0) avg:(0.028765953 -0.0059671499 -0.016971413)
     feature  : max:(0.34554883 -0.28394459 0.096796105) avg:(0.012119078 -0.0010118669 0.0030130968)
Feature analysis : total master points:5558 attraction to :
    feature point   : 39
    feature edge    : 687
    nearest surface : 0
    rest            : 4832

--> FOAM Warning : Displacement (-0.0049426657 -0.00021777162 -0.00059193586) at mesh point 29 coord (102.11894 215.80884 5.9608987) points through the surrounding patch faces
Smoothing displacement ...
Iteration 0
Iteration 10
Iteration 20
Iteration 30
Iteration 40
Iteration 50
Iteration 60
Iteration 70
Displacement smoothed in = 0.219 s


Moving mesh ...

Iteration 0
Moving mesh using displacement scaling : min:1  max:1
Checking faces in error :
    non-orthogonality > 65  degrees                        : 0
    faces with face pyramid volume < 1e-13                 : 0
    faces with concavity > 80  degrees                     : 0
    faces with skewness > 4   (internal) or 4   (boundary) : 0
    faces with interpolation weights (0..1)  < 0.05        : 0
    faces with volume ratio of neighbour cells < 0.01      : 0
    faces on cells with determinant < 0.001                : 0
Successfully moved mesh
Moved mesh in = 0.062 s



Morph iteration 6
-----------------
Calculating patchDisplacement as distance to nearest surface point ...
Wanted displacement : average:0.0586681 min:4.8041584e-21 max:0.25174141
Calculated surface displacement in = 0.016 s


Detecting near surfaces ...
Overriding nearest with intersection of close gaps at 0 out of 5558 points.
Overriding displacement on features :
   implicit features    : false
   explicit features    : true
   multi-patch features : false

Detected 0 baffle edges out of 10813 edges.
Initially selected 744 points out of 5558 for reverse attraction.
Selected 1884 points out of 5558 for reverse attraction.
Stringing feature edges : changed 21 points
Stringing feature edges : changed 0 points
Attraction:
     linear   : max:(0 -0.25174141 0) avg:(0.021105218 -0.0043189026 -0.013218969)
     feature  : max:(0.32002315 -0.26340804 4.9999998e-20) avg:(0.01046643 -0.00080857622 0.0029121701)
Feature analysis : total master points:5558 attraction to :
    feature point   : 39
    feature edge    : 690
    nearest surface : 0
    rest            : 4829

--> FOAM Warning : Displacement (-0.011470878 -0.00017977255 -0.0005025515) at mesh point 29 coord (102.114 215.80862 5.9603068) points through the surrounding patch faces
Smoothing displacement ...
Iteration 0
Iteration 10
Iteration 20
Iteration 30
Iteration 40
Iteration 50
Iteration 60
Iteration 70
Displacement smoothed in = 0.203 s


Moving mesh ...

Iteration 0
Moving mesh using displacement scaling : min:1  max:1
Checking faces in error :
    non-orthogonality > 65  degrees                        : 0
    faces with face pyramid volume < 1e-13                 : 0
    faces with concavity > 80  degrees                     : 0
    faces with skewness > 4   (internal) or 4   (boundary) : 0
    faces with interpolation weights (0..1)  < 0.05        : 0
    faces with volume ratio of neighbour cells < 0.01      : 0
    faces on cells with determinant < 0.001                : 0
Successfully moved mesh
Moved mesh in = 0.078 s



Morph iteration 7
-----------------
Calculating patchDisplacement as distance to nearest surface point ...
Wanted displacement : average:0.042973323 min:4.8041584e-21 max:0.18654629
Calculated surface displacement in = 0.016 s


Detecting near surfaces ...
Overriding nearest with intersection of close gaps at 0 out of 5558 points.
Overriding displacement on features :
   implicit features    : false
   explicit features    : true
   multi-patch features : false

Detected 0 baffle edges out of 10813 edges.
Initially selected 738 points out of 5558 for reverse attraction.
Selected 1872 points out of 5558 for reverse attraction.
Stringing feature edges : changed 12 points
Stringing feature edges : changed 0 points
Attraction:
     linear   : max:(0 -0.18654629 0) avg:(0.014213838 -0.0029296192 -0.0099222779)
     feature  : max:(0.28082031 -0.23114056 4.9999998e-20) avg:(0.0088278571 -0.00060903302 0.0025721617)
Feature analysis : total master points:5558 attraction to :
    feature point   : 36
    feature edge    : 693
    nearest surface : 0
    rest            : 4829

--> FOAM Warning : Displacement (-0.0165962 -9.133214e-05 -0.0003430022) at mesh point 29 coord (102.10253 215.80844 5.9598042) points through the surrounding patch faces
Smoothing displacement ...
Iteration 0
Iteration 10
Iteration 20
Iteration 30
Iteration 40
Iteration 50
Iteration 60
Iteration 70
Displacement smoothed in = 0.203 s


Moving mesh ...

Iteration 0
Moving mesh using displacement scaling : min:1  max:1
Checking faces in error :
    non-orthogonality > 65  degrees                        : 0
    faces with face pyramid volume < 1e-13                 : 0
    faces with concavity > 80  degrees                     : 0
    faces with skewness > 4   (internal) or 4   (boundary) : 0
    faces with interpolation weights (0..1)  < 0.05        : 0
    faces with volume ratio of neighbour cells < 0.01      : 0
    faces on cells with determinant < 0.001                : 0
Successfully moved mesh
Moved mesh in = 0.078 s



Morph iteration 8
-----------------
Calculating patchDisplacement as distance to nearest surface point ...
Wanted displacement : average:0.029879589 min:4.8041584e-21 max:0.13695781
Calculated surface displacement in = 0 s


Detecting near surfaces ...
Overriding nearest with intersection of close gaps at 0 out of 5558 points.
Overriding displacement on features :
   implicit features    : false
   explicit features    : true
   multi-patch features : false

Detected 0 baffle edges out of 10813 edges.
Initially selected 735 points out of 5558 for reverse attraction.
Selected 1869 points out of 5558 for reverse attraction.
Stringing feature edges : changed 9 points
Stringing feature edges : changed 0 points
Attraction:
     linear   : max:(0 -0.13695781 0) avg:(0.0084948911 -0.0018610317 -0.0072062376)
     feature  : max:(0.23588906 -0.19415807 4.9999998e-20) avg:(0.0071893092 -0.00046662198 0.0022164427)
Feature analysis : total master points:5558 attraction to :
    feature point   : 33
    feature edge    : 696
    nearest surface : 0
    rest            : 4829

--> FOAM Warning : Displacement (-0.01926891 1.8057487e-05 -0.00017365281) at mesh point 29 coord (102.08593 215.80835 5.9594612) points through the surrounding patch faces
Smoothing displacement ...
Iteration 0
Iteration 10
Iteration 20
Iteration 30
Iteration 40
Iteration 50
Iteration 60
Iteration 70
Displacement smoothed in = 0.219 s


Moving mesh ...

Iteration 0
Moving mesh using displacement scaling : min:1  max:1
Checking faces in error :
    non-orthogonality > 65  degrees                        : 0
    faces with face pyramid volume < 1e-13                 : 0
    faces with concavity > 80  degrees                     : 0
    faces with skewness > 4   (internal) or 4   (boundary) : 0
    faces with interpolation weights (0..1)  < 0.05        : 0
    faces with volume ratio of neighbour cells < 0.01      : 0
    faces on cells with determinant < 0.001                : 0
Successfully moved mesh
Moved mesh in = 0.062 s



Morph iteration 9
-----------------
Calculating patchDisplacement as distance to nearest surface point ...
Wanted displacement : average:0.020249234 min:4.8041584e-21 max:0.095569384
Calculated surface displacement in = 0.016 s


Detecting near surfaces ...
Overriding nearest with intersection of close gaps at 0 out of 5558 points.
Overriding displacement on features :
   implicit features    : false
   explicit features    : true
   multi-patch features : false

Detected 0 baffle edges out of 10813 edges.
Initially selected 729 points out of 5558 for reverse attraction.
Selected 1863 points out of 5558 for reverse attraction.
Stringing feature edges : changed 3 points
Stringing feature edges : changed 0 points
Attraction:
     linear   : max:(0 -0.095569384 0) avg:(0.0041536971 -0.0011038848 -0.0050983536)
     feature  : max:(0.26661784 -0.0351672 0) avg:(0.0057070179 -0.00033884612 0.0019383398)
Feature analysis : total master points:5558 attraction to :
    feature point   : 27
    feature edge    : 702
    nearest surface : 0
    rest            : 4829

--> FOAM Warning : Displacement (-0.019163949 0.00010974393 -4.7826914e-05) at mesh point 29 coord (102.06666 215.80837 5.9592876) points through the surrounding patch faces
Smoothing displacement ...
Iteration 0
Iteration 10
Iteration 20
Iteration 30
Iteration 40
Iteration 50
Iteration 60
Iteration 70
Displacement smoothed in = 0.203 s


Moving mesh ...

Iteration 0
Moving mesh using displacement scaling : min:1  max:1
Checking faces in error :
    non-orthogonality > 65  degrees                        : 0
    faces with face pyramid volume < 1e-13                 : 0
    faces with concavity > 80  degrees                     : 0
    faces with skewness > 4   (internal) or 4   (boundary) : 0
    faces with interpolation weights (0..1)  < 0.05        : 0
    faces with volume ratio of neighbour cells < 0.01      : 0
    faces on cells with determinant < 0.001                : 0
Successfully moved mesh
Moved mesh in = 0.078 s



Morph iteration 10
-----------------
Calculating patchDisplacement as distance to nearest surface point ...
Wanted displacement : average:0.014550654 min:4.8041584e-21 max:0.064624273
Calculated surface displacement in = 0.016 s


Detecting near surfaces ...
Overriding nearest with intersection of close gaps at 0 out of 5558 points.
Overriding displacement on features :
   implicit features    : false
   explicit features    : true
   multi-patch features : false

Detected 0 baffle edges out of 10813 edges.
Initially selected 729 points out of 5558 for reverse attraction.
Selected 1863 points out of 5558 for reverse attraction.
Stringing feature edges : changed 3 points
Stringing feature edges : changed 0 points
Attraction:
     linear   : max:(0 0 -0.064624273) avg:(0.0011792472 -0.00061318995 -0.0035225922)
     feature  : max:(0.19996338 -0.017584017 0) avg:(0.0041766081 -0.00023547849 0.001482094)
Feature analysis : total master points:5558 attraction to :
    feature point   : 27
    feature edge    : 702
    nearest surface : 0
    rest            : 4829

--> FOAM Warning : Displacement (-0.016710583 0.00015634168 1.4945624e-05) at mesh point 29 coord (102.0475 215.80848 5.9592397) points through the surrounding patch faces
Smoothing displacement ...
Iteration 0
Iteration 10
Iteration 20
Iteration 30
Iteration 40
Iteration 50
Iteration 60
Iteration 70
Displacement smoothed in = 0.203 s


Moving mesh ...

Iteration 0
Moving mesh using displacement scaling : min:1  max:1
Checking faces in error :
    non-orthogonality > 65  degrees                        : 0
    faces with face pyramid volume < 1e-13                 : 0
    faces with concavity > 80  degrees                     : 0
    faces with skewness > 4   (internal) or 4   (boundary) : 0
    faces with interpolation weights (0..1)  < 0.05        : 0
    faces with volume ratio of neighbour cells < 0.01      : 0
    faces on cells with determinant < 0.001                : 0
Successfully moved mesh
Moved mesh in = 0.078 s



Morph iteration 11
-----------------
Calculating patchDisplacement as distance to nearest surface point ...
Wanted displacement : average:0.010569019 min:4.8041584e-21 max:0.050869044
Calculated surface displacement in = 0 s


Detecting near surfaces ...
Overriding nearest with intersection of close gaps at 0 out of 5558 points.
Overriding displacement on features :
   implicit features    : false
   explicit features    : true
   multi-patch features : false

Detected 0 baffle edges out of 10813 edges.
Initially selected 729 points out of 5558 for reverse attraction.
Selected 1863 points out of 5558 for reverse attraction.
Stringing feature edges : changed 3 points
Stringing feature edges : changed 0 points
Attraction:
     linear   : max:(0 0 -0.050869044) avg:(-0.00053508802 -0.00032330975 -0.0023657776)
     feature  : max:(0.13947446 -0.0079132211 0) avg:(0.0028618813 -0.00015638656 0.0010512119)
Feature analysis : total master points:5558 attraction to :
    feature point   : 27
    feature edge    : 702
    nearest surface : 0
    rest            : 4829

--> FOAM Warning : Displacement (-0.012859776 0.00015465559 2.8609842e-05) at mesh point 29 coord (102.03079 215.80863 5.9592547) points through the surrounding patch faces
Smoothing displacement ...
Iteration 0
Iteration 10
Iteration 20
Iteration 30
Iteration 40
Iteration 50
Iteration 60
Iteration 70
Displacement smoothed in = 0.203 s


Moving mesh ...

Iteration 0
Moving mesh using displacement scaling : min:1  max:1
Checking faces in error :
    non-orthogonality > 65  degrees                        : 0
    faces with face pyramid volume < 1e-13                 : 0
    faces with concavity > 80  degrees                     : 0
    faces with skewness > 4   (internal) or 4   (boundary) : 0
    faces with interpolation weights (0..1)  < 0.05        : 0
    faces with volume ratio of neighbour cells < 0.01      : 0
    faces on cells with determinant < 0.001                : 0
Successfully moved mesh
Moved mesh in = 0.078 s



Morph iteration 12
-----------------
Calculating patchDisplacement as distance to nearest surface point ...
Wanted displacement : average:0.0077093854 min:4.8041584e-21 max:0.047140987
Calculated surface displacement in = 0.016 s


Detecting near surfaces ...
Overriding nearest with intersection of close gaps at 0 out of 5558 points.
Overriding displacement on features :
   implicit features    : false
   explicit features    : true
   multi-patch features : false

Detected 0 baffle edges out of 10813 edges.
Initially selected 729 points out of 5558 for reverse attraction.
Selected 1863 points out of 5558 for reverse attraction.
Stringing feature edges : changed 3 points
Stringing feature edges : changed 0 points
Attraction:
     linear   : max:(-0.047140987 0 0) avg:(-0.0012506578 -0.00016629092 -0.0015222475)
     feature  : max:(0.089263651 -0.0031656892 0) avg:(0.0018092307 -9.8139561e-05 0.00068407953)
Feature analysis : total master points:5558 attraction to :
    feature point   : 27
    feature edge    : 702
    nearest surface : 0
    rest            : 4829

--> FOAM Warning : Displacement (-0.0087070188 0.00012150544 2.0045712e-05) at mesh point 29 coord (102.01793 215.80879 5.9592833) points through the surrounding patch faces
Smoothing displacement ...
Iteration 0
Iteration 10
Iteration 20
Iteration 30
Iteration 40
Iteration 50
Iteration 60
Iteration 70
Displacement smoothed in = 0.203 s


Moving mesh ...

Iteration 0
Moving mesh using displacement scaling : min:1  max:1
Checking faces in error :
    non-orthogonality > 65  degrees                        : 0
    faces with face pyramid volume < 1e-13                 : 0
    faces with concavity > 80  degrees                     : 0
    faces with skewness > 4   (internal) or 4   (boundary) : 0
    faces with interpolation weights (0..1)  < 0.05        : 0
    faces with volume ratio of neighbour cells < 0.01      : 0
    faces on cells with determinant < 0.001                : 0
Successfully moved mesh
Moved mesh in = 0.078 s



Morph iteration 13
-----------------
Calculating patchDisplacement as distance to nearest surface point ...
Wanted displacement : average:0.005405912 min:4.8041584e-21 max:0.041237677
Calculated surface displacement in = 0 s


Detecting near surfaces ...
Overriding nearest with intersection of close gaps at 0 out of 5558 points.
Overriding displacement on features :
   implicit features    : false
   explicit features    : true
   multi-patch features : false

Detected 0 baffle edges out of 10813 edges.
Initially selected 729 points out of 5558 for reverse attraction.
Selected 1863 points out of 5558 for reverse attraction.
Stringing feature edges : changed 3 points
Stringing feature edges : changed 0 points
Attraction:
     linear   : max:(-0.041237677 0 0) avg:(-0.0012946428 -8.6666522e-05 -0.00091664608)
     feature  : max:(0.00077278394 -0.052873128 0.043238157) avg:(0.0010363654 -5.7458845e-05 0.00040312946)
Feature analysis : total master points:5558 attraction to :
    feature point   : 27
    feature edge    : 702
    nearest surface : 0
    rest            : 4829

--> FOAM Warning : Displacement (-0.0051300854 7.9302617e-05 9.1598464e-06) at mesh point 29 coord (102.00922 215.80891 5.9593033) points through the surrounding patch faces
Smoothing displacement ...
Iteration 0
Iteration 10
Iteration 20
Iteration 30
Iteration 40
Iteration 50
Iteration 60
Iteration 70
Displacement smoothed in = 0.203 s


Moving mesh ...

Iteration 0
Moving mesh using displacement scaling : min:1  max:1
Checking faces in error :
    non-orthogonality > 65  degrees                        : 0
    faces with face pyramid volume < 1e-13                 : 0
    faces with concavity > 80  degrees                     : 0
    faces with skewness > 4   (internal) or 4   (boundary) : 0
    faces with interpolation weights (0..1)  < 0.05        : 0
    faces with volume ratio of neighbour cells < 0.01      : 0
    faces on cells with determinant < 0.001                : 0
Successfully moved mesh
Moved mesh in = 0.078 s



Morph iteration 14
-----------------
Calculating patchDisplacement as distance to nearest surface point ...
Wanted displacement : average:0.003499404 min:4.8041584e-21 max:0.029809841
Calculated surface displacement in = 0.016 s


Detecting near surfaces ...
Overriding nearest with intersection of close gaps at 0 out of 5558 points.
Overriding displacement on features :
   implicit features    : false
   explicit features    : true
   multi-patch features : false

Detected 3 baffle edges out of 10813 edges.
Initially selected 729 points out of 5558 for reverse attraction.
Selected 1863 points out of 5558 for reverse attraction.
Stringing feature edges : changed 3 points
Stringing feature edges : changed 0 points
Attraction:
     linear   : max:(-0.029809841 0 0) avg:(-0.00099466667 -4.6687056e-05 -0.00050146941)
     feature  : max:(0.00042116724 0 0.032644808) avg:(0.0005258308 -2.3979585e-05 0.00021190239)
Feature analysis : total master points:5558 attraction to :
    feature point   : 24
    feature edge    : 705
    nearest surface : 0
    rest            : 4829

--> FOAM Warning : Displacement (-0.0025790692 4.3393158e-05 3.0468183e-06) at mesh point 29 coord (102.00409 215.80899 5.9593125) points through the surrounding patch faces
Smoothing displacement ...
Iteration 0
Iteration 10
Iteration 20
Iteration 30
Iteration 40
Iteration 50
Iteration 60
Iteration 70
Displacement smoothed in = 0.203 s


Moving mesh ...

Iteration 0
Moving mesh using displacement scaling : min:1  max:1
Checking faces in error :
    non-orthogonality > 65  degrees                        : 0
    faces with face pyramid volume < 1e-13                 : 0
    faces with concavity > 80  degrees                     : 0
    faces with skewness > 4   (internal) or 4   (boundary) : 0
    faces with interpolation weights (0..1)  < 0.05        : 0
    faces with volume ratio of neighbour cells < 0.01      : 0
    faces on cells with determinant < 0.001                : 0
Successfully moved mesh
Moved mesh in = 0.078 s



Morph iteration 15
-----------------
Calculating patchDisplacement as distance to nearest surface point ...
Wanted displacement : average:0.0019862037 min:4.8041584e-21 max:0.017824347
Calculated surface displacement in = 0 s


Detecting near surfaces ...
Overriding nearest with intersection of close gaps at 0 out of 5558 points.
Overriding displacement on features :
   implicit features    : false
   explicit features    : true
   multi-patch features : false

Detected 3 baffle edges out of 10813 edges.
Initially selected 729 points out of 5558 for reverse attraction.
Selected 1863 points out of 5558 for reverse attraction.
Stringing feature edges : changed 0 points
Attraction:
     linear   : max:(-0.017824347 0 0) avg:(-0.0006100897 -2.5153638e-05 -0.00024083574)
     feature  : max:(0.0004474902 0 0.046926912) avg:(0.00022946277 -1.034666e-05 0.00011048323)
Feature analysis : total master points:5558 attraction to :
    feature point   : 24
    feature edge    : 705
    nearest surface : 0
    rest            : 4829

--> FOAM Warning : Displacement (-0.0010708387 2.0048429e-05 1.0993115e-06) at mesh point 29 coord (102.00151 215.80903 5.9593155) points through the surrounding patch faces
Smoothing displacement ...
Iteration 0
Iteration 10
Iteration 20
Iteration 30
Iteration 40
Iteration 50
Iteration 60
Iteration 70
Displacement smoothed in = 0.203 s


Moving mesh ...

Iteration 0
Moving mesh using displacement scaling : min:1  max:1
Checking faces in error :
    non-orthogonality > 65  degrees                        : 0
    faces with face pyramid volume < 1e-13                 : 0
    faces with concavity > 80  degrees                     : 0
    faces with skewness > 4   (internal) or 4   (boundary) : 0
    faces with interpolation weights (0..1)  < 0.05        : 0
    faces with volume ratio of neighbour cells < 0.01      : 0
    faces on cells with determinant < 0.001                : 0
Successfully moved mesh
Moved mesh in = 0.079 s



Morph iteration 16
-----------------
Calculating patchDisplacement as distance to nearest surface point ...
Wanted displacement : average:0.00094810533 min:4.8041584e-21 max:0.00864068
Calculated surface displacement in = 0.015 s


Detecting near surfaces ...
Overriding nearest with intersection of close gaps at 0 out of 5558 points.
Overriding displacement on features :
   implicit features    : false
   explicit features    : true
   multi-patch features : false

Detected 3 baffle edges out of 10813 edges.
Initially selected 729 points out of 5558 for reverse attraction.
Selected 1863 points out of 5558 for reverse attraction.
Stringing feature edges : changed 0 points
Attraction:
     linear   : max:(-0.00864068 0 0) avg:(-0.00030327897 -1.2512542e-05 -9.7409506e-05)
     feature  : max:(8.949804e-05 0 0.016893688) avg:(8.2413016e-05 -3.6976138e-06 3.9807708e-05)
Feature analysis : total master points:5558 attraction to :
    feature point   : 24
    feature edge    : 705
    nearest surface : 0
    rest            : 4829

--> FOAM Warning : Displacement (-0.00034964465 7.6184204e-06 2.8129091e-07) at mesh point 29 coord (102.00044 215.80905 5.9593166) points through the surrounding patch faces
Smoothing displacement ...
Iteration 0
Iteration 10
Iteration 20
Iteration 30
Iteration 40
Iteration 50
Iteration 60
Iteration 70
Displacement smoothed in = 0.203 s


Moving mesh ...

Iteration 0
Moving mesh using displacement scaling : min:1  max:1
Checking faces in error :
    non-orthogonality > 65  degrees                        : 0
    faces with face pyramid volume < 1e-13                 : 0
    faces with concavity > 80  degrees                     : 0
    faces with skewness > 4   (internal) or 4   (boundary) : 0
    faces with interpolation weights (0..1)  < 0.05        : 0
    faces with volume ratio of neighbour cells < 0.01      : 0
    faces on cells with determinant < 0.001                : 0
Successfully moved mesh
Moved mesh in = 0.078 s



Morph iteration 17
-----------------
Calculating patchDisplacement as distance to nearest surface point ...
Wanted displacement : average:0.00035943471 min:4.8041584e-21 max:0.0032507513
Calculated surface displacement in = 0 s


Detecting near surfaces ...
Overriding nearest with intersection of close gaps at 0 out of 5558 points.
Overriding displacement on features :
   implicit features    : false
   explicit features    : true
   multi-patch features : false

Detected 0 baffle edges out of 10813 edges.
Initially selected 729 points out of 5558 for reverse attraction.
Selected 1863 points out of 5558 for reverse attraction.
Stringing feature edges : changed 3 points
Stringing feature edges : changed 0 points
Attraction:
     linear   : max:(-0.0032507513 0 0) avg:(-0.00011745226 -5.2170791e-06 -3.1347737e-05)
     feature  : max:(6.712353e-06 -0.039919212 0.0023439993) avg:(2.2835952e-05 -8.088719e-06 9.7870434e-06)
Feature analysis : total master points:5558 attraction to :
    feature point   : 27
    feature edge    : 702
    nearest surface : 0
    rest            : 4829

--> FOAM Warning : Displacement (-8.1329826e-05 2.8017235e-06 -5.940773e-08) at mesh point 29 coord (102.00009 215.80906 5.9593169) points through the surrounding patch faces
Smoothing displacement ...
Iteration 0
Iteration 10
Iteration 20
Iteration 30
Iteration 40
Iteration 50
Iteration 60
Iteration 70
Displacement smoothed in = 0.204 s


Moving mesh ...

Iteration 0
Moving mesh using displacement scaling : min:1  max:1
Checking faces in error :
    non-orthogonality > 65  degrees                        : 0
    faces with face pyramid volume < 1e-13                 : 0
    faces with concavity > 80  degrees                     : 3
    faces with skewness > 4   (internal) or 4   (boundary) : 0
    faces with interpolation weights (0..1)  < 0.05        : 0
    faces with volume ratio of neighbour cells < 0.01      : 0
    faces on cells with determinant < 0.001                : 0

Iteration 1
Moving mesh using displacement scaling : min:0.75  max:1
Checking faces in error :
    non-orthogonality > 65  degrees                        : 0
    faces with face pyramid volume < 1e-13                 : 0
    faces with concavity > 80  degrees                     : 0
    faces with skewness > 4   (internal) or 4   (boundary) : 0
    faces with interpolation weights (0..1)  < 0.05        : 0
    faces with volume ratio of neighbour cells < 0.01      : 0
    faces on cells with determinant < 0.001                : 0
Successfully moved mesh
Moved mesh in = 0.125 s



Morph iteration 18
-----------------
Calculating patchDisplacement as distance to nearest surface point ...
Wanted displacement : average:0.00010297154 min:4.8041584e-21 max:0.0033728367
Calculated surface displacement in = 0.015 s


Detecting near surfaces ...
Overriding nearest with intersection of close gaps at 0 out of 5558 points.
Overriding displacement on features :
   implicit features    : false
   explicit features    : true
   multi-patch features : false

Detected 0 baffle edges out of 10813 edges.
Initially selected 729 points out of 5558 for reverse attraction.
Selected 1863 points out of 5558 for reverse attraction.
Stringing feature edges : changed 3 points
Stringing feature edges : changed 0 points
Attraction:
     linear   : max:(-0.0033728367 0 0) avg:(-3.665245e-05 -1.6099985e-06 -7.4935921e-06)
     feature  : max:(4.2203919e-06 -0.027793751 0.0016320095) avg:(4.3385919e-06 -5.1455995e-06 2.5690692e-06)
Feature analysis : total master points:5558 attraction to :
    feature point   : 27
    feature edge    : 702
    nearest surface : 0
    rest            : 4829

--> FOAM Warning : Displacement (-1.1359095e-05 8.7707301e-07 -5.4398839e-08) at mesh point 29 coord (102.00001 215.80906 5.9593169) points through the surrounding patch faces
Smoothing displacement ...
Iteration 0
Iteration 10
Iteration 20
Iteration 30
Iteration 40
Iteration 50
Iteration 60
Iteration 70
Displacement smoothed in = 0.203 s


Moving mesh ...

Iteration 0
Moving mesh using displacement scaling : min:1  max:1
Checking faces in error :
    non-orthogonality > 65  degrees                        : 0
    faces with face pyramid volume < 1e-13                 : 0
    faces with concavity > 80  degrees                     : 3
    faces with skewness > 4   (internal) or 4   (boundary) : 0
    faces with interpolation weights (0..1)  < 0.05        : 0
    faces with volume ratio of neighbour cells < 0.01      : 0
    faces on cells with determinant < 0.001                : 0

Iteration 1
Moving mesh using displacement scaling : min:0.75  max:1
Checking faces in error :
    non-orthogonality > 65  degrees                        : 0
    faces with face pyramid volume < 1e-13                 : 0
    faces with concavity > 80  degrees                     : 3
    faces with skewness > 4   (internal) or 4   (boundary) : 0
    faces with interpolation weights (0..1)  < 0.05        : 0
    faces with volume ratio of neighbour cells < 0.01      : 0
    faces on cells with determinant < 0.001                : 0

Iteration 2
Moving mesh using displacement scaling : min:0.5625  max:1
Checking faces in error :
    non-orthogonality > 65  degrees                        : 0
    faces with face pyramid volume < 1e-13                 : 0
    faces with concavity > 80  degrees                     : 3
    faces with skewness > 4   (internal) or 4   (boundary) : 0
    faces with interpolation weights (0..1)  < 0.05        : 0
    faces with volume ratio of neighbour cells < 0.01      : 0
    faces on cells with determinant < 0.001                : 0

Iteration 3
Moving mesh using displacement scaling : min:0.421875  max:1
Checking faces in error :
    non-orthogonality > 65  degrees                        : 0
    faces with face pyramid volume < 1e-13                 : 0
    faces with concavity > 80  degrees                     : 3
    faces with skewness > 4   (internal) or 4   (boundary) : 0
    faces with interpolation weights (0..1)  < 0.05        : 0
    faces with volume ratio of neighbour cells < 0.01      : 0
    faces on cells with determinant < 0.001                : 0

Iteration 4
Moving mesh using displacement scaling : min:0.31640625  max:1
Checking faces in error :
    non-orthogonality > 65  degrees                        : 0
    faces with face pyramid volume < 1e-13                 : 0
    faces with concavity > 80  degrees                     : 3
    faces with skewness > 4   (internal) or 4   (boundary) : 0
    faces with interpolation weights (0..1)  < 0.05        : 0
    faces with volume ratio of neighbour cells < 0.01      : 0
    faces on cells with determinant < 0.001                : 0

Iteration 5
Moving mesh using displacement scaling : min:0.23730469  max:1
Checking faces in error :
    non-orthogonality > 65  degrees                        : 0
    faces with face pyramid volume < 1e-13                 : 0
    faces with concavity > 80  degrees                     : 0
    faces with skewness > 4   (internal) or 4   (boundary) : 0
    faces with interpolation weights (0..1)  < 0.05        : 0
    faces with volume ratio of neighbour cells < 0.01      : 0
    faces on cells with determinant < 0.001                : 0
Successfully moved mesh
Moved mesh in = 0.344 s



Morph iteration 19
-----------------
Calculating patchDisplacement as distance to nearest surface point ...
Wanted displacement : average:2.0843851e-05 min:4.8041584e-21 max:0.0029221276
Calculated surface displacement in = 0 s


Detecting near surfaces ...
Overriding nearest with intersection of close gaps at 0 out of 5558 points.
Overriding displacement on features :
   implicit features    : false
   explicit features    : true
   multi-patch features : false

Detected 0 baffle edges out of 10813 edges.
Initially selected 729 points out of 5558 for reverse attraction.
Selected 1863 points out of 5558 for reverse attraction.
Stringing feature edges : changed 3 points
Stringing feature edges : changed 0 points
Attraction:
     linear   : max:(-0.0029221276 0 0) avg:(-9.4581338e-06 -2.7948067e-07 -1.3607561e-06)
     feature  : max:(3.7208844e-06 -0.024817492 0.0014572478) avg:(4.2512855e-07 -4.4557938e-06 1.042952e-06)
Feature analysis : total master points:5558 attraction to :
    feature point   : 27
    feature edge    : 702
    nearest surface : 0
    rest            : 4829

--> FOAM Warning : Displacement (-4.5719588e-07 0 0) at mesh point 29 coord (102 215.80907 5.9593168) points through the surrounding patch faces
Smoothing displacement ...
Iteration 0
Iteration 10
Iteration 20
Iteration 30
Iteration 40
Iteration 50
Iteration 60
Iteration 70
Displacement smoothed in = 0.203 s


Moving mesh ...

Iteration 0
Moving mesh using displacement scaling : min:1  max:1
Checking faces in error :
    non-orthogonality > 65  degrees                        : 0
    faces with face pyramid volume < 1e-13                 : 0
    faces with concavity > 80  degrees                     : 3
    faces with skewness > 4   (internal) or 4   (boundary) : 0
    faces with interpolation weights (0..1)  < 0.05        : 0
    faces with volume ratio of neighbour cells < 0.01      : 0
    faces on cells with determinant < 0.001                : 0

Iteration 1
Moving mesh using displacement scaling : min:0.75  max:1
Checking faces in error :
    non-orthogonality > 65  degrees                        : 0
    faces with face pyramid volume < 1e-13                 : 0
    faces with concavity > 80  degrees                     : 3
    faces with skewness > 4   (internal) or 4   (boundary) : 0
    faces with interpolation weights (0..1)  < 0.05        : 0
    faces with volume ratio of neighbour cells < 0.01      : 0
    faces on cells with determinant < 0.001                : 0

Iteration 2
Moving mesh using displacement scaling : min:0.5625  max:1
Checking faces in error :
    non-orthogonality > 65  degrees                        : 0
    faces with face pyramid volume < 1e-13                 : 0
    faces with concavity > 80  degrees                     : 3
    faces with skewness > 4   (internal) or 4   (boundary) : 0
    faces with interpolation weights (0..1)  < 0.05        : 0
    faces with volume ratio of neighbour cells < 0.01      : 0
    faces on cells with determinant < 0.001                : 0

Iteration 3
Moving mesh using displacement scaling : min:0.421875  max:1
Checking faces in error :
    non-orthogonality > 65  degrees                        : 0
    faces with face pyramid volume < 1e-13                 : 0
    faces with concavity > 80  degrees                     : 3
    faces with skewness > 4   (internal) or 4   (boundary) : 0
    faces with interpolation weights (0..1)  < 0.05        : 0
    faces with volume ratio of neighbour cells < 0.01      : 0
    faces on cells with determinant < 0.001                : 0

Iteration 4
Moving mesh using displacement scaling : min:0.31640625  max:1
Checking faces in error :
    non-orthogonality > 65  degrees                        : 0
    faces with face pyramid volume < 1e-13                 : 0
    faces with concavity > 80  degrees                     : 3
    faces with skewness > 4   (internal) or 4   (boundary) : 0
    faces with interpolation weights (0..1)  < 0.05        : 0
    faces with volume ratio of neighbour cells < 0.01      : 0
    faces on cells with determinant < 0.001                : 0

Iteration 5
Moving mesh using displacement scaling : min:0.23730469  max:1
Checking faces in error :
    non-orthogonality > 65  degrees                        : 0
    faces with face pyramid volume < 1e-13                 : 0
    faces with concavity > 80  degrees                     : 3
    faces with skewness > 4   (internal) or 4   (boundary) : 0
    faces with interpolation weights (0..1)  < 0.05        : 0
    faces with volume ratio of neighbour cells < 0.01      : 0
    faces on cells with determinant < 0.001                : 0

Iteration 6
Moving mesh using displacement scaling : min:0.17797852  max:1
Checking faces in error :
    non-orthogonality > 65  degrees                        : 0
    faces with face pyramid volume < 1e-13                 : 0
    faces with concavity > 80  degrees                     : 3
    faces with skewness > 4   (internal) or 4   (boundary) : 0
    faces with interpolation weights (0..1)  < 0.05        : 0
    faces with volume ratio of neighbour cells < 0.01      : 0
    faces on cells with determinant < 0.001                : 0

Iteration 7
Moving mesh using displacement scaling : min:0.13348389  max:1
Checking faces in error :
    non-orthogonality > 65  degrees                        : 0
    faces with face pyramid volume < 1e-13                 : 0
    faces with concavity > 80  degrees                     : 3
    faces with skewness > 4   (internal) or 4   (boundary) : 0
    faces with interpolation weights (0..1)  < 0.05        : 0
    faces with volume ratio of neighbour cells < 0.01      : 0
    faces on cells with determinant < 0.001                : 0

Iteration 8
Displacement scaling for error reduction set to 0.
Moving mesh using displacement scaling : min:0.10011292  max:1
Checking faces in error :
    non-orthogonality > 65  degrees                        : 0
    faces with face pyramid volume < 1e-13                 : 0
    faces with concavity > 80  degrees                     : 3
    faces with skewness > 4   (internal) or 4   (boundary) : 0
    faces with interpolation weights (0..1)  < 0.05        : 0
    faces with volume ratio of neighbour cells < 0.01      : 0
    faces on cells with determinant < 0.001                : 0

Iteration 9
Moving mesh using displacement scaling : min:0  max:1
Checking faces in error :
    non-orthogonality > 65  degrees                        : 0
    faces with face pyramid volume < 1e-13                 : 0
    faces with concavity > 80  degrees                     : 0
    faces with skewness > 4   (internal) or 4   (boundary) : 0
    faces with interpolation weights (0..1)  < 0.05        : 0
    faces with volume ratio of neighbour cells < 0.01      : 0
    faces on cells with determinant < 0.001                : 0
Successfully moved mesh
Moved mesh in = 0.563 s


Repatching faces according to nearest surface ...
Repatched 0 faces in = 0.015 s


Edge intersection testing:
    Number of edges             : 111942
    Number of edges to retest   : 32454
    Number of intersected edges : 5258
Merging 199 sets of faces.

Edge intersection testing:
    Number of edges             : 111712
    Number of edges to retest   : 1012
    Number of intersected edges : 5028

Undo iteration 0
----------------
Checking faces in error :
    non-orthogonality > 65  degrees                        : 0
    faces with face pyramid volume < 1e-13                 : 0
    faces with concavity > 80  degrees                     : 0
    faces with skewness > 4   (internal) or 4   (boundary) : 0
    faces with interpolation weights (0..1)  < 0.05        : 0
    faces with volume ratio of neighbour cells < 0.01      : 0
    faces on cells with determinant < 0.001                : 0

Merging all points on surface that
- are used by only two boundary faces and
- make an angle with a cosine of more than 0.98480775.

Removing 180 straight edge points ...

Edge intersection testing:
    Number of edges             : 111712
    Number of edges to retest   : 976
    Number of intersected edges : 5028

Undo iteration 0
----------------
Checking faces in error :
    non-orthogonality > 65  degrees                        : 0
    faces with face pyramid volume < 1e-13                 : 0
    faces with concavity > 80  degrees                     : 0
    faces with skewness > 4   (internal) or 4   (boundary) : 0
    faces with interpolation weights (0..1)  < 0.05        : 0
    faces with volume ratio of neighbour cells < 0.01      : 0
    faces on cells with determinant < 0.001                : 0
Snapped mesh : cells:33240  faces:111712  points:45673
Cells per refinement level:
    0	0
    1	0
    2	69
    3	1729
    4	8664
    5	22778
Writing mesh to time constant
Wrote mesh in = 1.578 s.
Mesh snapped in = 8.562 s.

Shrinking and layer addition phase
----------------------------------

Using mesh parameters 
{
    maxNonOrtho     65;
    maxBoundarySkewness 4;
    maxInternalSkewness 4;
    maxConcave      80;
    minVol          1e-13;
    minTetQuality   -1e+30;
    minArea         -1;
    minTwist        -1e+30;
    minDeterminant  0.001;
    minFaceWeight   0.05;
    minVolRatio     0.01;
    minTriangleTwist -1;
    nSmoothScale    4;
    errorReduction  0.75;
    relaxed
    {
        maxNonOrtho     75;
    }
}



Merging all faces of a cell
---------------------------
    - which are on the same patch
    - which make an angle < 30 degrees
      (cos:0.8660254)
    - as long as the resulting face doesn't become concave by more than 90 degrees
      (0=straight, 180=fully concave)

Merging 4 sets of faces.

Edge intersection testing:
    Number of edges             : 111708
    Number of edges to retest   : 28
    Number of intersected edges : 5024

Undo iteration 0
----------------
Checking faces in error :
    non-orthogonality > 65  degrees                        : 0
    faces with face pyramid volume < 1e-13                 : 0
    faces with concavity > 80  degrees                     : 0
    faces with skewness > 4   (internal) or 4   (boundary) : 0
    faces with interpolation weights (0..1)  < 0.05        : 0
    faces with volume ratio of neighbour cells < 0.01      : 0
    faces on cells with determinant < 0.001                : 0

Merging all points on surface that
- are used by only two boundary faces and
- make an angle with a cosine of more than 0.8660254.

Removing 8 straight edge points ...

Edge intersection testing:
    Number of edges             : 111708
    Number of edges to retest   : 84
    Number of intersected edges : 5024

Undo iteration 0
----------------
Checking faces in error :
    non-orthogonality > 65  degrees                        : 0
    faces with face pyramid volume < 1e-13                 : 0
    faces with concavity > 80  degrees                     : 0
    faces with skewness > 4   (internal) or 4   (boundary) : 0
    faces with interpolation weights (0..1)  < 0.05        : 0
[...]

Determining displacement for added points according to pointNormal ...
Detected 0 points with point normal pointing through faces.
Reset displacement at 0 points to average of surrounding points.

displacementMedialAxis : Smoothing using Medial Axis ...
displacementMedialAxis : Reducing layer thickness at 1 nodes where thickness to medial axis distance is large 
displacementMedialAxis : Removing isolated regions ...
displacementMedialAxis : Number of isolated points extrusion stopped : 0
displacementMedialAxis : Smoothing field ...
    Iteration 0   residual 0.01212815
displacementMedialAxis : Moving mesh ...
displacementMedialAxis : Iteration 0
Moving mesh using displacement scaling : min:1  max:1
Checking faces in error :
    non-orthogonality > 65  degrees                        : 0
    faces with face pyramid volume < 1e-13                 : 0
    faces with concavity > 80  degrees                     : 0
    faces with skewness > 4   (internal) or 4   (boundary) : 0
    faces with interpolation weights (0..1)  < 0.05        : 0
    faces with volume ratio of neighbour cells < 0.01      : 0
    faces on cells with determinant < 0.001                : 0
displacementMedialAxis : Successfully moved mesh
displacementMedialAxis : Finished moving mesh ...
truncateDisplacement : Unextruded 0 faces due to non-consecutive vertices being extruded.
truncateDisplacement : Unextruded 0 faces due to stringed edges with inconsistent extrusion.

Setting up information for layer truncation ...

Checking mesh with layer ...
Checking faces in error :
    non-orthogonality > 65  degrees                        : 3
    faces with face pyramid volume < 1e-13                 : 0
    faces with concavity > 80  degrees                     : 0
    faces with skewness > 4   (internal) or 4   (boundary) : 0
    faces with interpolation weights (0..1)  < 0.05        : 0
    faces with volume ratio of neighbour cells < 0.01      : 0
    faces on cells with determinant < 0.001                : 0
Detected 3 illegal faces (concave, zero area or negative cell pyramid volume)
Extruding 5228 out of 5258 faces (99.429441%). Removed extrusion at 3 faces.
Added 12831 out of 15774 cells (81.342716%).

Edge intersection testing:
    Number of edges             : 147181
    Number of edges to retest   : 0
    Number of intersected edges : 20814
Writing 12831 added cells to cellSet addedCells
Writing 7600 faces inside added layer to faceSet layerFaces

Writing fields with layer information:
    nSurfaceLayers    : actual number of layers
    thickness         : overall layer thickness
    thicknessFraction : overall layer thickness (fraction of desired thickness)


patch faces    layers   overall thickness
                        [m]       [%]
----- -----    ------   ---       ---
tower 5258     2.44     0.408     78.6    

Layer mesh : cells:44436  faces:147181  points:59154
Cells per refinement level:
    0	0
    1	0
    2	67
    3	1727
    4	9582
    5	33060
Writing mesh to time constant
Wrote mesh in = 5.406 s.
Layers added in = 5.406 s.
Checking final mesh ...
Checking faces in error :
    non-orthogonality > 65  degrees                        : 3
    faces with face pyramid volume < 1e-13                 : 0
    faces with concavity > 80  degrees                     : 0
    faces with skewness > 4   (internal) or 4   (boundary) : 0
    faces with interpolation weights (0..1)  < 0.05        : 0
    faces with volume ratio of neighbour cells < 0.01      : 0
    faces on cells with determinant < 0.001                : 0
Finished meshing with 3 illegal faces (concave, zero area or negative cell pyramid volume)
Finished meshing in = 20.438 s.
End

/*---------------------------------------------------------------------------*\
  =========                 |
  \\      /  F ield         | OpenFOAM: The Open Source CFD Toolbox
   \\    /   O peration     | Website:  https://openfoam.org
    \\  /    A nd           | Version:  8
     \\/     M anipulation  |
\*---------------------------------------------------------------------------*/
/*   Windows 32 and 64 bit porting by blueCAPE: http://www.bluecape.com.pt   *\
|  Based on Windows porting (2.0.x v4) by Symscape: http://www.symscape.com   |
\*---------------------------------------------------------------------------*/
Build  : 8-53cd1468e263
Exec   : createPatch -region vegetation -overwrite
Date   : Nov 14 2024
Time   : 13:09:17
Host   : "FOAM2"
PID    : 16524
I/O    : uncollated
Case   : C:/MetaFoam_Cases/UMCF_CRVS_05b
nProcs : 1
SigFpe : Enabling floating point exception trapping (FOAM_SIGFPE).
fileModificationChecking : Monitoring run-time modified files using timeStampMaster (fileModificationSkew 10)
allowSystemOperations : Allowing user-supplied system call operations

// * * * * * * * * * * * * * * * * * * * * * * * * * * * * * * * * * * * * * //
Create time

Create polyMesh vegetation for time = 0

Reading createPatchDict

Adding new patch air_to_vegetation as patch 8 from 
{
    type            wall;
}


Moving faces from patch vegetation to patch 8

Doing topology modification to order faces.

Not synchronising points.

Removing patches with no faces in them.

Removing zero-sized patch vegetation type wall at position 6
Removing patches.
Writing repatched mesh to 0

End

/*---------------------------------------------------------------------------*\
  =========                 |
  \\      /  F ield         | OpenFOAM: The Open Source CFD Toolbox
   \\    /   O peration     | Website:  https://openfoam.org
    \\  /    A nd           | Version:  8
     \\/     M anipulation  |
\*---------------------------------------------------------------------------*/
/*   Windows 32 and 64 bit porting by blueCAPE: http://www.bluecape.com.pt   *\
|  Based on Windows porting (2.0.x v4) by Symscape: http://www.symscape.com   |
\*---------------------------------------------------------------------------*/
Build  : 8-53cd1468e263
Exec   : changeDictionary -region vegetation
Date   : Nov 14 2024
Time   : 13:09:19
Host   : "FOAM2"
PID    : 24192
I/O    : uncollated
Case   : C:/MetaFoam_Cases/UMCF_CRVS_05b
nProcs : 1
SigFpe : Enabling floating point exception trapping (FOAM_SIGFPE).
fileModificationChecking : Monitoring run-time modified files using timeStampMaster (fileModificationSkew 10)
allowSystemOperations : Allowing user-supplied system call operations

// * * * * * * * * * * * * * * * * * * * * * * * * * * * * * * * * * * * * * //
--> FOAM Warning : 
changeDictionary has been superseded by foamDictionary and is now deprecated.

Create time

Create mesh vegetation for time = 0

Read dictionary changeDictionaryDict with replacements for dictionaries 1(boundary)
Reading polyMesh/boundary file to extract patch names
Loaded dictionary boundary with entries 
8
(
left
right
back
front
bottom
top
tower
air_to_vegetation
)

Extracted patch groups:
    group wall with patches 
3
(
bottom
tower
air_to_vegetation
)

Replacing entries in dictionary boundary
Special handling of boundary as polyMesh/boundary file.
Merging entries from 
8
(
left
right
back
front
bottom
top
air_to_vegetation
tower
)

fieldDict:
{
    left
    {
        type            mappedPatch;
        nFaces          116;
        startFace       135990;
        sampleMode      nearestPatchFace;
        sampleRegion    air;
        samplePatch     left;
        offsetMode      uniform;
        offset          ( 0 0 0 );
    }
    right
    {
        type            mappedPatch;
        nFaces          116;
        startFace       136106;
        sampleMode      nearestPatchFace;
        sampleRegion    air;
        samplePatch     right;
        offsetMode      uniform;
        offset          ( 0 0 0 );
    }
    back
    {
        type            mappedPatch;
        nFaces          76;
        startFace       136222;
        sampleMode      nearestPatchFace;
        sampleRegion    air;
        samplePatch     back;
        offsetMode      uniform;
        offset          ( 0 0 0 );
    }
    front
    {
        type            mappedPatch;
        nFaces          241;
        startFace       136298;
        sampleMode      nearestPatchFace;
        sampleRegion    air;
        samplePatch     front;
        offsetMode      uniform;
        offset          ( 0 0 0 );
    }
    bottom
    {
        type            mappedWall;
        inGroups        List<word> 0();
        nFaces          2138;
        startFace       136539;
        sampleMode      nearestPatchFace;
        sampleRegion    air;
        samplePatch     bottom;
        offsetMode      uniform;
        offset          ( 0 0 0 );
    }
    top
    {
        type            mappedPatch;
        nFaces          521;
        startFace       138677;
        sampleMode      nearestPatchFace;
        sampleRegion    air;
        samplePatch     top;
        offsetMode      uniform;
        offset          ( 0 0 0 );
    }
    tower
    {
        type            mappedWall;
        inGroups        List<word> 0();
        nFaces          5258;
        startFace       139198;
        sampleMode      nearestPatchFace;
        sampleRegion    air;
        samplePatch     tower;
        offsetMode      uniform;
        offset          ( 0 0 0 );
    }
    air_to_vegetation
    {
        type            mappedWall;
        inGroups        List<word> 0();
        nFaces          2725;
        startFace       144456;
        sampleMode      nearestCell;
        sampleRegion    air;
        offsetMode      uniform;
        offset          ( 0 0 0 );
    }
}

Writing modified boundary

End

/*---------------------------------------------------------------------------*\
  =========                 |
  \\      /  F ield         | OpenFOAM: The Open Source CFD Toolbox
   \\    /   O peration     | Website:  https://openfoam.org
    \\  /    A nd           | Version:  8
     \\/     M anipulation  |
\*---------------------------------------------------------------------------*/
/*   Windows 32 and 64 bit porting by blueCAPE: http://www.bluecape.com.pt   *\
|  Based on Windows porting (2.0.x v4) by Symscape: http://www.symscape.com   |
\*---------------------------------------------------------------------------*/
Build  : 8-53cd1468e263
Exec   : extrudeMesh
Date   : Nov 14 2024
Time   : 13:09:19
Host   : "FOAM2"
PID    : 44708
I/O    : uncollated
Case   : C:/MetaFoam_Cases/UMCF_CRVS_05b
nProcs : 1
SigFpe : Enabling floating point exception trapping (FOAM_SIGFPE).
fileModificationChecking : Monitoring run-time modified files using timeStampMaster (fileModificationSkew 10)
allowSystemOperations : Allowing user-supplied system call operations

// * * * * * * * * * * * * * * * * * * * * * * * * * * * * * * * * * * * * * //
Create time

Create mesh for time = 0

Selecting extrudeModel linearNormal
Extruding from surface using model linearNormal
Flipping normals before extruding
Not collapsing any edges after extrusion

Extruding surfaceMesh read from file "constant/triSurface/tower.stl.gz"

Flipping faces.

Extruding surface with :
    points     : 14844
    faces      : 29676
    normals[0] : (0 1 0)

Mesh bounding box : (102 165.97946 -1.6298806e-11) (115.24946 219 8.4970465)
        with span : (13.249458 53.020538 8.4970465)
Merge distance    : 0

Writing mesh to "constant/region0"

End

/*---------------------------------------------------------------------------*\
  =========                 |
  \\      /  F ield         | OpenFOAM: The Open Source CFD Toolbox
   \\    /   O peration     | Website:  https://openfoam.org
    \\  /    A nd           | Version:  8
     \\/     M anipulation  |
\*---------------------------------------------------------------------------*/
/*   Windows 32 and 64 bit porting by blueCAPE: http://www.bluecape.com.pt   *\
|  Based on Windows porting (2.0.x v4) by Symscape: http://www.symscape.com   |
\*---------------------------------------------------------------------------*/
Build  : 8-53cd1468e263
Exec   : createPatch -region tower -overwrite
Date   : Nov 14 2024
Time   : 13:09:25
Host   : "FOAM2"
PID    : 38844
I/O    : uncollated
Case   : C:/MetaFoam_Cases/UMCF_CRVS_05b
nProcs : 1
SigFpe : Enabling floating point exception trapping (FOAM_SIGFPE).
fileModificationChecking : Monitoring run-time modified files using timeStampMaster (fileModificationSkew 10)
allowSystemOperations : Allowing user-supplied system call operations

// * * * * * * * * * * * * * * * * * * * * * * * * * * * * * * * * * * * * * //
Create time

Create polyMesh tower for time = 0

Reading createPatchDict

Adding new patch buildings_to_air as patch 3 from 
{
    type            patch;
}

Adding new patch interior as patch 4 from 
{
    type            patch;
}


Moving faces from patch originalPatch to patch 3
Moving faces from patch otherSide to patch 4

Doing topology modification to order faces.

Not synchronising points.

Removing patches with no faces in them.

Removing zero-sized patch sides type wall at position 0
Removing zero-sized patch originalPatch type patch at position 1
Removing zero-sized patch otherSide type patch at position 2
Removing patches.
Writing repatched mesh to 0

End

/*---------------------------------------------------------------------------*\
  =========                 |
  \\      /  F ield         | OpenFOAM: The Open Source CFD Toolbox
   \\    /   O peration     | Website:  https://openfoam.org
    \\  /    A nd           | Version:  8
     \\/     M anipulation  |
\*---------------------------------------------------------------------------*/
/*   Windows 32 and 64 bit porting by blueCAPE: http://www.bluecape.com.pt   *\
|  Based on Windows porting (2.0.x v4) by Symscape: http://www.symscape.com   |
\*---------------------------------------------------------------------------*/
Build  : 8-53cd1468e263
Exec   : changeDictionary -region tower
Date   : Nov 14 2024
Time   : 13:09:31
Host   : "FOAM2"
PID    : 42600
I/O    : uncollated
Case   : C:/MetaFoam_Cases/UMCF_CRVS_05b
nProcs : 1
SigFpe : Enabling floating point exception trapping (FOAM_SIGFPE).
fileModificationChecking : Monitoring run-time modified files using timeStampMaster (fileModificationSkew 10)
allowSystemOperations : Allowing user-supplied system call operations

// * * * * * * * * * * * * * * * * * * * * * * * * * * * * * * * * * * * * * //
--> FOAM Warning : 
changeDictionary has been superseded by foamDictionary and is now deprecated.

Create time

Create mesh tower for time = 0

Read dictionary changeDictionaryDict with replacements for dictionaries 1(boundary)
Reading polyMesh/boundary file to extract patch names
Loaded dictionary boundary with entries 
2
(
buildings_to_air
interior
)

Replacing entries in dictionary boundary
Special handling of boundary as polyMesh/boundary file.
Merging entries from 1(buildings_to_air)
fieldDict:
{
    buildings_to_air
    {
        type            mappedWall;
        nFaces          29676;
        startFace       712224;
        sampleMode      nearestPatchFace;
        sampleRegion    air;
        samplePatch     tower;
        offsetMode      uniform;
        offset          ( 0 0 0 );
    }
    interior
    {
        type            patch;
        nFaces          29676;
        startFace       741900;
    }
}

Writing modified boundary

End

/*---------------------------------------------------------------------------*\
  =========                 |
  \\      /  F ield         | OpenFOAM: The Open Source CFD Toolbox
   \\    /   O peration     | Website:  https://openfoam.org
    \\  /    A nd           | Version:  8
     \\/     M anipulation  |
\*---------------------------------------------------------------------------*/
/*   Windows 32 and 64 bit porting by blueCAPE: http://www.bluecape.com.pt   *\
|  Based on Windows porting (2.0.x v4) by Symscape: http://www.symscape.com   |
\*---------------------------------------------------------------------------*/
Build  : 8-53cd1468e263
Exec   : topoSet -region tower
Date   : Nov 14 2024
Time   : 13:09:33
Host   : "FOAM2"
PID    : 31836
I/O    : uncollated
Case   : C:/MetaFoam_Cases/UMCF_CRVS_05b
nProcs : 1
SigFpe : Enabling floating point exception trapping (FOAM_SIGFPE).
fileModificationChecking : Monitoring run-time modified files using timeStampMaster (fileModificationSkew 10)
allowSystemOperations : Allowing user-supplied system call operations

// * * * * * * * * * * * * * * * * * * * * * * * * * * * * * * * * * * * * * //
Create time

Create polyMesh tower for time = 0

Reading topoSetDict

Time = 0
    mesh not changed.
Created cellSet tower
    Applying source rotatedBoxToCell
    Adding cells with center within rotated box 
    cellSet tower now size 296760
Created cellZoneSet tower
    Applying source setToCellZone
    Adding all cells from cellSet tower ...
    cellZoneSet tower now size 296760
End

/*---------------------------------------------------------------------------*\
  =========                 |
  \\      /  F ield         | OpenFOAM: The Open Source CFD Toolbox
   \\    /   O peration     | Website:  https://openfoam.org
    \\  /    A nd           | Version:  8
     \\/     M anipulation  |
\*---------------------------------------------------------------------------*/
/*   Windows 32 and 64 bit porting by blueCAPE: http://www.bluecape.com.pt   *\
|  Based on Windows porting (2.0.x v4) by Symscape: http://www.symscape.com   |
\*---------------------------------------------------------------------------*/
Build  : 8-53cd1468e263
Exec   : topoSet -region air
Date   : Nov 14 2024
Time   : 13:09:35
Host   : "FOAM2"
PID    : 23124
I/O    : uncollated
Case   : C:/MetaFoam_Cases/UMCF_CRVS_05b
nProcs : 1
SigFpe : Enabling floating point exception trapping (FOAM_SIGFPE).
fileModificationChecking : Monitoring run-time modified files using timeStampMaster (fileModificationSkew 10)
allowSystemOperations : Allowing user-supplied system call operations

// * * * * * * * * * * * * * * * * * * * * * * * * * * * * * * * * * * * * * //
Create time

Create polyMesh air for time = 0

Reading topoSetDict

Time = 0
    mesh not changed.
Created cellSet vegetation
    Applying source surfaceToCell
    Adding cells in relation to surface "constant/triSurface/vegetation.stl" ...
    Marked inside/outside using surface intersection in = 0.406 s

    cellSet vegetation now size 6623
Created cellZoneSet vegetation
    Applying source setToCellZone
    Adding all cells from cellSet vegetation ...
    cellZoneSet vegetation now size 6623
End

/*---------------------------------------------------------------------------*\
  =========                 |
  \\      /  F ield         | OpenFOAM: The Open Source CFD Toolbox
   \\    /   O peration     | Website:  https://openfoam.org
    \\  /    A nd           | Version:  8
     \\/     M anipulation  |
\*---------------------------------------------------------------------------*/
/*   Windows 32 and 64 bit porting by blueCAPE: http://www.bluecape.com.pt   *\
|  Based on Windows porting (2.0.x v4) by Symscape: http://www.symscape.com   |
\*---------------------------------------------------------------------------*/
Build  : 8-53cd1468e263
Exec   : setFields -region air
Date   : Nov 14 2024
Time   : 13:09:36
Host   : "FOAM2"
PID    : 37040
I/O    : uncollated
Case   : C:/MetaFoam_Cases/UMCF_CRVS_05b
nProcs : 1
SigFpe : Enabling floating point exception trapping (FOAM_SIGFPE).
fileModificationChecking : Monitoring run-time modified files using timeStampMaster (fileModificationSkew 10)
allowSystemOperations : Allowing user-supplied system call operations

// * * * * * * * * * * * * * * * * * * * * * * * * * * * * * * * * * * * * * //
Create time

Create mesh air for time = 0

Reading setFieldsDict

Setting field default values
    Setting internal values of volScalarField LAD

Setting field region values
    Adding all cells of cellZone vegetation ...
    Found matching zone vegetation with 6623 cells.
    Setting internal values of volScalarField LAD

End

