/*---------------------------------------------------------------------------*\
  =========                 |
  \\      /  F ield         | OpenFOAM: The Open Source CFD Toolbox
   \\    /   O peration     | Website:  https://openfoam.org
    \\  /    A nd           | Version:  8
     \\/     M anipulation  |
\*---------------------------------------------------------------------------*/
/*   Windows 32 and 64 bit porting by blueCAPE: http://www.bluecape.com.pt   *\
|  Based on Windows porting (2.0.x v4) by Symscape: http://www.symscape.com   |
\*---------------------------------------------------------------------------*/
Build  : 8-53cd1468e263
Exec   : solarRayTracingGen -region vegetation -parallel
Date   : Nov 14 2024
Time   : 13:10:06
Host   : "FOAM2"
PID    : 39524
I/O    : uncollated
Case   : C:/MetaFoam_Cases/UMCF_CRVS_05b
nProcs : 20
Slaves : 
19
(
"FOAM2.38624"
"FOAM2.43640"
"FOAM2.46552"
"FOAM2.34536"
"FOAM2.30456"
"FOAM2.33868"
"FOAM2.33980"
"FOAM2.39308"
"FOAM2.35740"
"FOAM2.39928"
"FOAM2.38868"
"FOAM2.28052"
"FOAM2.42800"
"FOAM2.13316"
"FOAM2.26444"
"FOAM2.40156"
"FOAM2.17684"
"FOAM2.45276"
"FOAM2.40460"
)

Pstream initialized with:
    floatTransfer      : 0
    nProcsSimpleSum    : 0
    commsType          : nonBlocking
    polling iterations : 0
SigFpe : Enabling floating point exception trapping (FOAM_SIGFPE).
fileModificationChecking : Monitoring run-time modified files using timeStampMaster (fileModificationSkew 10)
allowSystemOperations : Allowing user-supplied system call operations

// * * * * * * * * * * * * * * * * * * * * * * * * * * * * * * * * * * * * * //
Create time

Create mesh vegetation for time = 0


Creating single cell mesh...
[0] 
Created single cell mesh...
[15] 
Created single cell mesh...
[18] 
Created single cell mesh...
[12] 
Created single cell mesh...
[11] 
Created single cell mesh...
[5] 
Created single cell mesh...
[13] 
Created single cell mesh...
[19] 
Created single cell mesh...
[14] 
Created single cell mesh...
[7] 
Created single cell mesh...
[6] 
Created single cell mesh...
[2] 
Created single cell mesh...
[8] 
Created single cell mesh...
howManyCoarseFacesPerPatch: 
11
(
0
2
0
0
35
2
402
0
0
0
0
)

[4] 
Created single cell mesh...
[9] 
Created single cell mesh...
[3] 
Created single cell mesh...
[17] 
Created single cell mesh...
[16] 
Created single cell mesh...
[10] 
Created single cell mesh...
[1] 
Created single cell mesh...
howManyFineFacesPerPatch: 
11
(
0
42
0
0
157
8
402
0
0
0
0
)


Total number of coarse faces: 5993
[0] 
View factor patches included in the calculation : 2(4 6)
nVisibleFaceFacesList: 
5
(
437{0}
437{0}
437{0}
437{0}
437{0}
)

nVisibleFaceFacesListFINE: 
5
(
559{1}
559{1}
559{1}
559{1}

559
(
0
0
1
1
1
1
1
1
1
1
1
0
1
1
1
1
1
1
1
1
1
1
1
1
1
1
1
1
1
1
1
1
1
1
1
1
1
1
1
1
1
1
1
1
1
1
1
1
1
1
1
1
1
1
1
1
1
1
1
1
1
1
1
1
1
1
1
1
1
1
1
1
1
1
1
1
1
1
1
1
1
1
1
1
1
1
1
1
1
1
1
1
1
1
1
1
1
1
1
1
1
1
1
1
1
1
1
1
1
1
1
1
1
1
1
1
1
1
1
1
1
1
1
1
1
1
1
1
1
1
1
1
1
1
1
1
1
1
1
1
1
1
1
1
1
1
1
1
1
1
1
1
1
1
1
1
1
1
1
1
1
1
1
1
1
1
1
1
1
1
1
1
1
1
1
1
1
1
1
1
1
1
1
1
1
1
1
1
1
1
1
1
1
1
1
1
1
1
1
1
1
1
1
1
1
1
1
1
1
1
1
1
1
1
1
1
1
1
1
1
1
1
1
1
1
1
1
1
1
1
1
1
1
1
1
1
1
1
1
1
1
1
1
1
1
1
1
1
1
1
1
1
1
1
1
1
1
1
1
1
1
1
1
1
1
1
1
1
1
1
1
1
1
1
1
1
1
1
1
1
1
1
1
1
1
1
1
1
1
1
1
1
1
1
1
1
1
1
1
1
1
1
1
1
1
1
1
1
1
1
1
1
1
1
1
1
1
1
1
1
1
1
1
1
1
1
1
1
1
1
1
1
1
1
1
1
1
1
1
1
1
1
1
1
1
1
1
1
1
1
1
1
1
1
1
1
1
1
1
1
1
1
1
1
1
1
1
1
1
1
1
1
1
1
1
1
1
1
1
1
1
1
1
1
1
1
1
1
1
1
1
1
1
1
1
1
1
1
1
1
1
1
1
1
1
1
1
1
1
1
1
1
1
1
1
1
1
1
1
1
1
1
1
1
1
1
1
1
1
1
1
1
1
1
1
1
1
1
1
1
1
1
1
1
1
1
1
1
1
1
1
1
1
1
1
1
1
1
1
1
1
1
1
1
1
1
1
1
1
1
1
1
1
1
1
1
1
1
1
1
1
1
1
1
1
1
1
1
1
1
1
1
1
1
1
1
1
1
1
1
1
1
1
1
1
1
1
1
1
1
1
1
1
1
1
1
1
1
1
1
1
1
1
1
1
1
1
1
1
1
1
1
1
1
1
1
1
1
1
1
1
1
1
1
1
1
1
1
1
1
1
1
1
1
1
1
1
1
1
)

)

sunViewCoeff: 
5
(

441
(
0
0
717.08284
717.08284
717.08284
717.08284
717.08284
717.08284
717.08284
717.08284
717.08284
717.08284
717.08284
717.08284
717.08284
717.08284
717.08284
717.08284
717.08284
717.08284
717.08284
717.08284
717.08284
717.08284
717.08284
717.08284
717.08284
717.08284
717.08284
717.08284
717.08284
717.08284
717.08284
717.08284
717.08284
717.08284
717.08284
0
0
80.639504
80.639504
80.639504
80.639504
80.639504
80.639504
80.639504
80.639504
80.639504
80.639504
80.639504
80.639504
80.639504
80.639504
80.639504
80.639504
80.639504
80.639504
80.639504
80.639504
80.639504
80.639504
80.639504
80.639504
80.639504
80.639504
80.639504
80.639504
80.639504
80.639504
80.639504
80.639504
80.639504
80.639504
80.632692
80.639504
80.639504
80.639504
80.639504
80.639504
80.639504
80.639504
80.639504
80.639504
80.639504
80.639504
80.639504
80.639504
80.639504
80.639504
80.639504
80.639504
80.639504
80.639504
80.639504
80.639504
80.639504
80.639504
80.639504
80.639504
80.639504
80.639504
80.639504
80.639504
80.639504
80.639504
80.639504
80.639504
80.639504
80.639504
80.639504
80.639504
80.639504
80.639504
80.639504
80.639504
80.639504
80.639504
80.639504
80.639504
80.639504
80.639504
80.639504
80.639504
80.639504
80.639504
80.639504
80.639504
80.639504
80.639504
80.639504
80.639504
80.639504
80.639504
80.639504
80.639504
80.639504
80.639504
80.639504
80.639504
80.639504
80.639504
80.639504
80.639504
80.639504
80.639504
80.639504
80.639504
80.639504
80.639504
80.639504
80.639504
80.639504
80.639504
80.639504
80.639504
80.639504
80.639504
80.639504
80.639504
80.639504
80.639504
80.633661
80.639504
80.639504
80.649976
80.624021
80.621127
80.649509
80.656435
80.639504
80.639504
80.639504
80.639504
80.639504
80.639504
80.639504
80.639504
80.639504
80.639504
80.639504
80.639504
80.639504
80.639504
80.639504
80.639504
80.639504
80.639504
80.639504
80.639504
80.639504
80.639504
80.639504
80.639504
80.639504
80.639504
80.639504
80.639504
80.639504
80.639504
80.639504
80.639504
80.639504
80.639504
80.639504
80.639504
80.639504
80.639504
80.639504
80.639504
80.639504
80.639504
80.639504
80.639504
80.639504
80.639504
80.639504
80.639504
80.639504
80.639504
80.639504
80.639504
80.639504
80.639504
80.639504
80.639504
80.642646
126.23615
80.639504
80.639504
80.639504
80.639504
80.639504
80.639504
80.639504
80.639504
80.639504
80.639504
80.639504
80.639504
80.639504
80.639504
80.639504
80.639504
80.639504
80.639504
80.639504
80.639504
80.639504
80.639504
80.639504
80.639504
80.639504
80.639504
80.639504
80.639504
80.62827
80.639504
80.639504
80.639504
80.639504
80.639504
80.639504
80.639504
80.639504
80.639504
80.639504
80.639504
80.639504
80.639504
80.639504
80.639504
80.639504
80.639504
80.639504
80.639504
80.639504
80.639504
80.639504
80.639504
80.639504
80.639504
80.639504
80.639504
80.639504
80.639504
80.639504
80.639504
80.639504
80.639504
80.639504
80.639504
80.639504
80.639504
80.639504
80.639504
80.639504
80.639504
80.639504
80.639504
80.639504
80.639504
80.639504
80.639504
80.639504
80.639504
80.639504
80.639504
80.639504
80.639504
80.639504
80.639504
80.639504
80.639504
80.639504
80.639504
80.639504
80.639504
80.639504
80.639504
80.639504
80.639504
80.639504
80.639504
80.639504
80.639504
80.639504
80.639504
80.639504
80.639504
80.639504
80.639504
80.639504
80.639504
80.639504
80.639504
80.639504
80.639504
80.639504
80.639504
80.639504
80.639504
80.639504
80.639504
80.639504
80.639504
80.639504
80.639504
80.639504
80.639504
80.639504
80.639504
80.639504
80.639504
80.639504
80.639504
80.639504
80.639504
80.639504
80.639504
80.639504
80.639504
80.639504
80.639504
80.639504
80.639504
80.639504
80.639504
80.639504
80.639504
80.639504
80.639504
80.639504
80.639504
80.639504
80.639504
80.639504
80.639504
80.639504
80.639504
80.639504
80.639504
80.639504
80.639504
80.639504
80.639504
80.639504
80.639504
80.639504
80.639504
80.639504
80.639504
80.639504
80.639504
80.639504
80.639504
80.639504
80.639504
80.639504
80.639504
80.639504
80.639504
80.639504
80.639504
80.639504
80.639504
80.639504
80.639504
80.639504
80.639504
80.639504
80.639504
80.639504
80.639504
80.639504
80.639504
80.639504
80.639504
80.639504
80.639504
80.639504
80.639504
80.639504
80.639504
80.639504
80.639504
80.639504
80.639504
80.639504
80.639504
80.639504
80.639504
80.639504
80.639504
80.639504
80.639504
80.639504
80.639504
80.639504
80.639504
80.639504
80.639504
)


441
(
0
0
585.76158
585.76158
585.76158
585.76158
585.76158
585.76158
585.76158
585.76158
585.76158
585.76158
585.76158
585.76158
585.76158
585.76158
585.76158
585.76158
585.76158
585.76158
585.76158
585.76158
585.76158
585.76158
585.76158
585.76158
585.76158
585.76158
585.76158
585.76158
585.76158
585.76158
585.76158
585.76158
585.76158
585.76158
585.76158
0
0
227.80796
227.80796
227.80796
227.80796
227.80796
227.80796
227.80796
227.80796
227.80796
227.80796
227.80796
227.80796
227.80796
227.80796
227.80796
227.80796
227.80796
227.80796
227.80796
227.80796
227.80796
227.80796
227.80796
227.80796
227.80796
227.80796
227.80796
227.80796
227.80796
227.80796
227.80796
227.80796
227.80796
227.80796
227.80226
227.80796
227.80796
227.80796
227.80796
227.80796
227.80796
227.80796
227.80796
227.80796
227.80796
227.80796
227.80796
227.80796
227.80796
227.80796
227.80796
227.80796
227.80796
227.80796
227.80796
227.80796
227.80796
227.80796
227.80796
227.80796
227.80796
227.80796
227.80796
227.80796
227.80796
227.80796
227.80796
227.80796
227.80796
227.80796
227.80796
227.80796
227.80796
227.80796
227.80796
227.80796
227.80796
227.80796
227.80796
227.80796
227.80796
227.80796
227.80796
227.80796
227.80796
227.80796
227.80796
227.80796
227.80796
227.80796
227.80796
227.80796
227.80796
227.80796
227.80796
227.80796
227.80796
227.80796
227.80796
227.80796
227.80796
227.80796
227.80796
227.80796
227.80796
227.80796
227.80796
227.80796
227.80796
227.80796
227.80796
227.80796
227.80796
227.80796
227.80796
227.80796
227.80796
227.80796
227.80796
227.80796
227.80796
227.80796
227.80307
227.80796
227.80796
227.8164
227.79531
227.79358
227.81658
227.82178
227.80796
227.80796
227.80796
227.80796
227.80796
227.80796
227.80796
227.80796
227.80796
227.80796
227.80796
227.80796
227.80796
227.80796
227.80796
227.80796
227.80796
227.80796
227.80796
227.80796
227.80796
227.80796
227.80796
227.80796
227.80796
227.80796
227.80796
227.80796
227.80796
227.80796
227.80796
227.80796
227.80796
227.80796
227.80796
227.80796
227.80796
227.80796
227.80796
227.80796
227.80796
227.80796
227.80796
227.80796
227.80796
227.80796
227.80796
227.80796
227.80796
227.80796
227.80796
227.80796
227.80796
227.80796
227.80796
227.80796
227.80979
263.4354
227.80796
227.80796
227.80796
227.80796
227.80796
227.80796
227.80796
227.80796
227.80796
227.80796
227.80796
227.80796
227.80796
227.80796
227.80796
227.80796
227.80796
227.80796
227.80796
227.80796
227.80796
227.80796
227.80796
227.80796
227.80796
227.80796
227.80796
227.80796
227.79891
227.80796
227.80796
227.80796
227.80796
227.80796
227.80796
227.80796
227.80796
227.80796
227.80796
227.80796
227.80796
227.80796
227.80796
227.80796
227.80796
227.80796
227.80796
227.80796
227.80796
227.80796
227.80796
227.80796
227.80796
227.80796
227.80796
227.80796
227.80796
227.80796
227.80796
227.80796
227.80796
227.80796
227.80796
227.80796
227.80796
227.80796
227.80796
227.80796
227.80796
227.80796
227.80796
227.80796
227.80796
227.80796
227.80796
227.80796
227.80796
227.80796
227.80796
227.80796
227.80796
227.80796
227.80796
227.80796
227.80796
227.80796
227.80796
227.80796
227.80796
227.80796
227.80796
227.80796
227.80796
227.80796
227.80796
227.80796
227.80796
227.80796
227.80796
227.80796
227.80796
227.80796
227.80796
227.80796
227.80796
227.80796
227.80796
227.80796
227.80796
227.80796
227.80796
227.80796
227.80796
227.80796
227.80796
227.80796
227.80796
227.80796
227.80796
227.80796
227.80796
227.80796
227.80796
227.80796
227.80796
227.80796
227.80796
227.80796
227.80796
227.80796
227.80796
227.80796
227.80796
227.80796
227.80796
227.80796
227.80796
227.80796
227.80796
227.80796
227.80796
227.80796
227.80796
227.80796
227.80796
227.80796
227.80796
227.80796
227.80796
227.80796
227.80796
227.80796
227.80796
227.80796
227.80796
227.80796
227.80796
227.80796
227.80796
227.80796
227.80796
227.80796
227.80796
227.80796
227.80796
227.80796
227.80796
227.80796
227.80796
227.80796
227.80796
227.80796
227.80796
227.80796
227.80796
227.80796
227.80796
227.80796
227.80796
227.80796
227.80796
227.80796
227.80796
227.80796
227.80796
227.80796
227.80796
227.80796
227.80796
227.80796
227.80796
227.80796
227.80796
227.80796
227.80796
227.80796
227.80796
227.80796
227.80796
227.80796
227.80796
227.80796
227.80796
227.80796
227.80796
227.80796
227.80796
227.80796
227.80796
227.80796
227.80796
227.80796
227.80796
227.80796
)


441
(
0
0
536.2201
536.2201
536.2201
536.2201
536.2201
536.2201
536.2201
536.2201
536.2201
536.2201
536.2201
536.2201
536.2201
536.2201
536.2201
536.2201
536.2201
536.2201
536.2201
536.2201
536.2201
536.2201
536.2201
536.2201
536.2201
536.2201
536.2201
536.2201
536.2201
536.2201
536.2201
536.2201
536.2201
536.2201
536.2201
0
0
381.92334
381.92334
381.92334
381.92334
381.92334
381.92334
381.92334
381.92334
381.92334
381.92334
381.92334
381.92334
381.92334
381.92334
381.92334
381.92334
381.92334
381.92334
381.92334
381.92334
381.92334
381.92334
381.92334
381.92334
381.92334
381.92334
381.92334
381.92334
381.92334
381.92334
381.92334
381.92334
381.92334
381.92334
381.91783
381.92334
381.92334
381.92334
381.92334
381.92334
381.92334
381.92334
381.92334
381.92334
381.92334
381.92334
381.92334
381.92334
381.92334
381.92334
381.92334
381.92334
381.92334
381.92334
381.92334
381.92334
381.92334
381.92334
381.92334
381.92334
381.92334
381.92334
381.92334
381.92334
381.92334
381.92334
381.92334
381.92334
381.92334
381.92334
381.92334
381.92334
381.92334
381.92334
381.92334
381.92334
381.92334
381.92334
381.92334
381.92334
381.92334
381.92334
381.92334
381.92334
381.92334
381.92334
381.92334
381.92334
381.92334
381.92334
381.92334
381.92334
381.92334
381.92334
381.92334
381.92334
381.92334
381.92334
381.92334
381.92334
381.92334
381.92334
381.92334
381.92334
381.92334
381.92334
381.92334
381.92334
381.92334
381.92334
381.92334
381.92334
381.92334
381.92334
381.92334
381.92334
381.92334
381.92334
381.92334
381.92334
381.92334
381.92334
381.91863
381.92334
381.92334
381.93082
381.91177
381.91155
381.93222
381.93599
381.92334
381.92334
381.92334
381.92334
381.92334
381.92334
381.92334
381.92334
381.92334
381.92334
381.92334
381.92334
381.92334
381.92334
381.92334
381.92334
381.92334
381.92334
381.92334
381.92334
381.92334
381.92334
381.92334
381.92334
381.92334
381.92334
381.92334
381.92334
381.92334
381.92334
381.92334
381.92334
381.92334
381.92334
381.92334
381.92334
381.92334
381.92334
381.92334
381.92334
381.92334
381.92334
381.92334
381.92334
381.92334
381.92334
381.92334
381.92334
381.92334
381.92334
381.92334
381.92334
381.92334
381.92334
381.92334
381.92334
381.92343
411.74545
381.92334
381.92334
381.92334
381.92334
381.92334
381.92334
381.92334
381.92334
381.92334
381.92334
381.92334
381.92334
381.92334
381.92334
381.92334
381.92334
381.92334
381.92334
381.92334
381.92334
381.92334
381.92334
381.92334
381.92334
381.92334
381.92334
381.92334
381.92334
381.91535
381.92334
381.92334
381.92334
381.92334
381.92334
381.92334
381.92334
381.92334
381.92334
381.92334
381.92334
381.92334
381.92334
381.92334
381.92334
381.92334
381.92334
381.92334
381.92334
381.92334
381.92334
381.92334
381.92334
381.92334
381.92334
381.92334
381.92334
381.92334
381.92334
381.92334
381.92334
381.92334
381.92334
381.92334
381.92334
381.92334
381.92334
381.92334
381.92334
381.92334
381.92334
381.92334
381.92334
381.92334
381.92334
381.92334
381.92334
381.92334
381.92334
381.92334
381.92334
381.92334
381.92334
381.92334
381.92334
381.92334
381.92334
381.92334
381.92334
381.92334
381.92334
381.92334
381.92334
381.92334
381.92334
381.92334
381.92334
381.92334
381.92334
381.92334
381.92334
381.92334
381.92334
381.92334
381.92334
381.92334
381.92334
381.92334
381.92334
381.92334
381.92334
381.92334
381.92334
381.92334
381.92334
381.92334
381.92334
381.92334
381.92334
381.92334
381.92334
381.92334
381.92334
381.92334
381.92334
381.92334
381.92334
381.92334
381.92334
381.92334
381.92334
381.92334
381.92334
381.92334
381.92334
381.92334
381.92334
381.92334
381.92334
381.92334
381.92334
381.92334
381.92334
381.92334
381.92334
381.92334
381.92334
381.92334
381.92334
381.92334
381.92334
381.92334
381.92334
381.92334
381.92334
381.92334
381.92334
381.92334
381.92334
381.92334
381.92334
381.92334
381.92334
381.92334
381.92334
381.92334
381.92334
381.92334
381.92334
381.92334
381.92334
381.92334
381.92334
381.92334
381.92334
381.92334
381.92334
381.92334
381.92334
381.92334
381.92334
381.92334
381.92334
381.92334
381.92334
381.92334
381.92334
381.92334
381.92334
381.92334
381.92334
381.92334
381.92334
381.92334
381.92334
381.92334
381.92334
381.92334
381.92334
381.92334
381.92334
381.92334
381.92334
381.92334
381.92334
381.92334
381.92334
381.92334
381.92334
381.92334
381.92334
381.92334
381.92334
381.92334
381.92334
)


441
(
0
0
411.8157
411.8157
411.8157
411.8157
411.8157
411.8157
411.8157
411.8157
411.8157
411.8157
411.8157
411.8157
411.8157
411.8157
411.8157
411.8157
411.8157
411.8157
411.8157
411.8157
411.8157
411.8157
411.8157
411.8157
411.8157
411.8157
411.8157
411.8157
411.8157
411.8157
411.8157
411.8157
411.8157
411.8157
411.8157
0
0
471.50949
471.50949
471.50949
471.50949
471.50949
471.50949
471.50949
471.50949
471.50949
471.50949
471.50949
471.50949
471.50949
471.50949
471.50949
471.50949
471.50949
471.50949
471.50949
471.50949
471.50949
471.50949
471.50949
471.50949
471.50949
471.50949
471.50949
471.50949
471.50949
471.50949
471.50949
471.50949
471.50949
471.50949
471.50482
471.50949
471.50949
471.50949
471.50949
471.50949
471.50949
471.50949
471.50949
471.50949
471.50949
471.50949
471.50949
471.50949
471.50949
471.50949
471.50949
471.50949
471.50949
471.50949
471.50949
471.50949
471.50949
471.50949
471.50949
471.50949
471.50949
471.50949
471.50949
471.50949
471.50949
471.50949
471.50949
471.50949
471.50949
471.50949
471.50949
471.50949
471.50949
471.50949
471.50949
471.50949
471.50949
471.50949
471.50949
471.50949
471.50949
471.50949
471.50949
471.50949
471.50949
471.50949
471.50949
471.50949
471.50949
471.50949
471.50949
471.50949
471.50949
471.50949
471.50949
471.50949
471.50949
471.50949
471.50949
471.50949
471.50949
471.50949
471.50949
471.50949
471.50949
471.50949
471.50949
471.50949
471.50949
471.50949
471.50949
471.50949
471.50949
471.50949
471.50949
471.50949
471.50949
471.50949
471.50949
471.50949
471.50949
471.50949
471.50551
471.50949
471.50949
471.51486
471.50061
471.50252
471.5178
471.51919
471.50949
471.50949
471.50949
471.50949
471.50949
471.50949
471.50949
471.50949
471.50949
471.50949
471.50949
471.50949
471.50949
471.50949
471.50949
471.50949
471.50949
471.50949
471.50949
471.50949
471.50949
471.50949
471.50949
471.50949
471.50949
471.50949
471.50949
471.50949
471.50949
471.50949
471.50949
471.50949
471.50949
471.50949
471.50949
471.50949
471.50949
471.50949
471.50949
471.50949
471.50949
471.50949
471.50949
471.50949
471.50949
471.50949
471.50949
471.50949
471.50949
471.50949
471.50949
471.50949
471.50949
471.50949
471.50949
471.50949
471.50715
490.53387
471.50949
471.50949
471.50949
471.50949
471.50949
471.50949
471.50949
471.50949
471.50949
471.50949
471.50949
471.50949
471.50949
471.50949
471.50949
471.50949
471.50949
471.50949
471.50949
471.50949
471.50949
471.50949
471.50949
471.50949
471.50949
471.50949
471.50949
471.50949
471.50379
471.50949
471.50949
471.50949
471.50949
471.50949
471.50949
471.50949
471.50949
471.50949
471.50949
471.50949
471.50949
471.50949
471.50949
471.50949
471.50949
471.50949
471.50949
471.50949
471.50949
471.50949
471.50949
471.50949
471.50949
471.50949
471.50949
471.50949
471.50949
471.50949
471.50949
471.50949
471.50949
471.50949
471.50949
471.50949
471.50949
471.50949
471.50949
471.50949
471.50949
471.50949
471.50949
471.50949
471.50949
471.50949
471.50949
471.50949
471.50949
471.50949
471.50949
471.50949
471.50949
471.50949
471.50949
471.50949
471.50949
471.50949
471.50949
471.50949
471.50949
471.50949
471.50949
471.50949
471.50949
471.50949
471.50949
471.50949
471.50949
471.50949
471.50949
471.50949
471.50949
471.50949
471.50949
471.50949
471.50949
471.50949
471.50949
471.50949
471.50949
471.50949
471.50949
471.50949
471.50949
471.50949
471.50949
471.50949
471.50949
471.50949
471.50949
471.50949
471.50949
471.50949
471.50949
471.50949
471.50949
471.50949
471.50949
471.50949
471.50949
471.50949
471.50949
471.50949
471.50949
471.50949
471.50949
471.50949
471.50949
471.50949
471.50949
471.50949
471.50949
471.50949
471.50949
471.50949
471.50949
471.50949
471.50949
471.50949
471.50949
471.50949
471.50949
471.50949
471.50949
471.50949
471.50949
471.50949
471.50949
471.50949
471.50949
471.50949
471.50949
471.50949
471.50949
471.50949
471.50949
471.50949
471.50949
471.50949
471.50949
471.50949
471.50949
471.50949
471.50949
471.50949
471.50949
471.50949
471.50949
471.50949
471.50949
471.50949
471.50949
471.50949
471.50949
471.50949
471.50949
471.50949
471.50949
471.50949
471.50949
471.50949
471.50949
471.50949
471.50949
471.50949
471.50949
471.50949
471.50949
471.50949
471.50949
471.50949
471.50949
471.50949
471.50949
471.50949
471.50949
471.50949
471.50949
471.50949
471.50949
471.50949
471.50949
471.50949
471.50949
471.50949
)


441
(
0
0
58.47951
174.37549
284.42858
284.42858
284.42858
284.42858
284.42858
284.42858
284.42858
284.42858
284.42858
284.42858
284.42858
284.42858
284.42858
284.42858
284.42858
284.42858
284.42858
284.42858
284.42858
284.42858
284.42858
284.42858
284.42858
284.42858
284.42858
284.42858
284.42858
284.42858
284.42858
284.42858
284.42858
284.42858
284.42858
0
0
524.72754
524.72754
524.72754
524.72754
524.72754
524.72754
524.72754
524.72754
524.72754
524.72754
524.72754
524.72754
524.72754
524.72754
524.72754
524.72754
524.72754
524.72754
524.72754
524.72754
524.72754
524.72754
524.72754
524.72754
524.72754
524.72754
524.72754
524.72754
524.72754
524.72754
524.72754
524.72754
524.72754
524.72754
524.72368
524.72754
524.72754
524.72754
524.72754
524.72754
524.72754
524.72754
524.72754
524.72754
524.72754
524.72754
524.72754
524.72754
524.72754
524.72754
524.72754
524.72754
524.72754
524.72754
524.72754
524.72754
524.72754
524.72754
524.72754
524.72754
524.72754
524.72754
524.72754
524.72754
524.72754
524.72754
524.72754
524.72754
524.72754
524.72754
524.72754
524.72754
524.72754
524.72754
524.72754
524.72754
524.72754
524.72754
524.72754
524.72754
524.72754
524.72754
524.72754
524.72754
524.72754
524.72754
524.72754
524.72754
524.72754
524.72754
524.72754
524.72754
524.72754
524.72754
524.72754
524.72754
524.72754
524.72754
524.72754
524.72754
524.72754
524.72754
524.72754
524.72754
524.72754
524.72754
524.72754
524.72754
524.72754
524.72754
524.72754
524.72754
524.72754
524.72754
524.72754
524.72754
524.72754
524.72754
524.72754
524.72754
524.72754
524.72754
524.72426
524.72754
524.72754
524.73071
524.72141
524.7257
524.7354
524.73421
524.72754
524.72754
524.72754
524.72754
524.72754
524.72754
524.72754
524.72754
524.72754
524.72754
524.72754
524.72754
524.72754
524.72754
524.72754
524.72754
524.72754
524.72754
524.72754
524.72754
524.72754
524.72754
524.72754
524.72754
524.72754
524.72754
524.72754
524.72754
524.72754
524.72754
524.72754
524.72754
524.72754
524.72754
524.72754
524.72754
524.72754
524.72754
524.72754
524.72754
524.72754
524.72754
524.72754
524.72754
524.72754
524.72754
524.72754
524.72754
524.72754
524.72754
524.72754
524.72754
524.72754
524.72754
524.72754
524.72754
524.72248
532.54832
524.72754
524.72754
524.72754
524.72754
524.72754
524.72754
524.72754
524.72754
524.72754
524.72754
524.72754
524.72754
524.72754
524.72754
524.72754
524.72754
524.72754
524.72754
524.72754
524.72754
524.72754
524.72754
524.72754
524.72754
524.72754
524.72754
524.72754
524.72754
524.72422
524.72754
524.72754
524.72754
524.72754
524.72754
524.72754
524.72754
524.72754
524.72754
524.72754
524.72754
524.72754
524.72754
524.72754
524.72754
524.72754
524.72754
524.72754
524.72754
524.72754
524.72754
524.72754
524.72754
524.72754
524.72754
524.72754
524.72754
524.72754
524.72754
524.72754
524.72754
524.72754
524.72754
524.72754
524.72754
524.72754
524.72754
524.72754
524.72754
524.72754
524.72754
524.72754
524.72754
524.72754
524.72754
524.72754
524.72754
524.72754
524.72754
524.72754
524.72754
524.72754
524.72754
524.72754
524.72754
524.72754
524.72754
524.72754
524.72754
524.72754
524.72754
524.72754
524.72754
524.72754
524.72754
524.72754
524.72754
524.72754
524.72754
524.72754
524.72754
524.72754
524.72754
524.72754
524.72754
524.72754
524.72754
524.72754
524.72754
524.72754
524.72754
524.72754
524.72754
524.72754
524.72754
524.72754
524.72754
524.72754
524.72754
524.72754
524.72754
524.72754
524.72754
524.72754
524.72754
524.72754
524.72754
524.72754
524.72754
524.72754
524.72754
524.72754
524.72754
524.72754
524.72754
524.72754
524.72754
524.72754
524.72754
524.72754
524.72754
524.72754
524.72754
524.72754
524.72754
524.72754
524.72754
524.72754
524.72754
524.72754
524.72754
524.72754
524.72754
524.72754
524.72754
524.72754
524.72754
524.72754
524.72754
524.72754
524.72754
524.72754
524.72754
524.72754
524.72754
524.72754
524.72754
524.72754
524.72754
524.72754
524.72754
524.72754
524.72754
524.72754
524.72754
524.72754
524.72754
524.72754
524.72754
524.72754
524.72754
524.72754
524.72754
524.72754
524.72754
524.72754
524.72754
524.72754
524.72754
524.72754
524.72754
524.72754
524.72754
524.72754
524.72754
524.72754
524.72754
524.72754
524.72754
524.72754
524.72754
524.72754
524.72754
524.72754
524.72754
524.72754
524.72754
524.72754
524.72754
524.72754
524.72754
524.72754
524.72754
524.72754
524.72754
)

)

skyViewCoeff: 
5
(

441
(
0
0
188
188
188
188
188
188
188
188
188
188
188
188
188
188
188
188
188
188
188
188
188
188
188
188
188
188
188
188
188
188
188
188
188
188
188
0
0
94
94
94
94
94
94
94
94
94
94
94
94
94
94
94
94
94
94
94
94
94
94
94
94
94
94
94
94
94
94
94
94
94
94
94.000781
94
94
94
94
94
94
94
94
94
94
94
94
94
94
94
94
94
94
94
94
94
94
94
94
94
94
94
94
94
94
94
94
94
94
94
94
94
94
94
94
94
94
94
94
94
94
94
94
94
94
94
94
94
94
94
94
94
94
94
94
94
94
94
94
94
94
94
94
94
94
94
94
94
94
94
94
94
94
94
94
94
94
94
94
94
94
94
94.000663
94
94
94.000695
94.001289
94.000534
94.001548
94.001406
94
94
94
94
94
94
94
94
94
94
94
94
94
94
94
94
94
94
94
94
94
94
94
94
94
94
94
94
94
94
94
94
94
94
94
94
94
94
94
94
94
94
94
94
94
94
94
94
94
94
94
94
94
94
94
94
94.000892
96.321398
94
94
94
94
94
94
94
94
94
94
94
94
94
94
94
94
94
94
94
94
94
94
94
94
94
94
94
94
94.000729
94
94
94
94
94
94
94
94
94
94
94
94
94
94
94
94
94
94
94
94
94
94
94
94
94
94
94
94
94
94
94
94
94
94
94
94
94
94
94
94
94
94
94
94
94
94
94
94
94
94
94
94
94
94
94
94
94
94
94
94
94
94
94
94
94
94
94
94
94
94
94
94
94
94
94
94
94
94
94
94
94
94
94
94
94
94
94
94
94
94
94
94
94
94
94
94
94
94
94
94
94
94
94
94
94
94
94
94
94
94
94
94
94
94
94
94
94
94
94
94
94
94
94
94
94
94
94
94
94
94
94
94
94
94
94
94
94
94
94
94
94
94
94
94
94
94
94
94
94
94
94
94
94
94
94
94
94
94
94
94
94
94
94
94
94
94
94
94
94
94
94
94
94
94
94
94
94
94
94
94
94
94
94
94
94
)


441
(
0
0
227
227
227
227
227
227
227
227
227
227
227
227
227
227
227
227
227
227
227
227
227
227
227
227
227
227
227
227
227
227
227
227
227
227
227
0
0
113.5
113.5
113.5
113.5
113.5
113.5
113.5
113.5
113.5
113.5
113.5
113.5
113.5
113.5
113.5
113.5
113.5
113.5
113.5
113.5
113.5
113.5
113.5
113.5
113.5
113.5
113.5
113.5
113.5
113.5
113.5
113.5
113.5
113.5
113.50094
113.5
113.5
113.5
113.5
113.5
113.5
113.5
113.5
113.5
113.5
113.5
113.5
113.5
113.5
113.5
113.5
113.5
113.5
113.5
113.5
113.5
113.5
113.5
113.5
113.5
113.5
113.5
113.5
113.5
113.5
113.5
113.5
113.5
113.5
113.5
113.5
113.5
113.5
113.5
113.5
113.5
113.5
113.5
113.5
113.5
113.5
113.5
113.5
113.5
113.5
113.5
113.5
113.5
113.5
113.5
113.5
113.5
113.5
113.5
113.5
113.5
113.5
113.5
113.5
113.5
113.5
113.5
113.5
113.5
113.5
113.5
113.5
113.5
113.5
113.5
113.5
113.5
113.5
113.5
113.5
113.5
113.5
113.5
113.5
113.5
113.5
113.5
113.5008
113.5
113.5
113.50084
113.50156
113.50065
113.50187
113.5017
113.5
113.5
113.5
113.5
113.5
113.5
113.5
113.5
113.5
113.5
113.5
113.5
113.5
113.5
113.5
113.5
113.5
113.5
113.5
113.5
113.5
113.5
113.5
113.5
113.5
113.5
113.5
113.5
113.5
113.5
113.5
113.5
113.5
113.5
113.5
113.5
113.5
113.5
113.5
113.5
113.5
113.5
113.5
113.5
113.5
113.5
113.5
113.5
113.5
113.5
113.5
113.5
113.5
113.5
113.5
113.5
113.50108
116.30296
113.5
113.5
113.5
113.5
113.5
113.5
113.5
113.5
113.5
113.5
113.5
113.5
113.5
113.5
113.5
113.5
113.5
113.5
113.5
113.5
113.5
113.5
113.5
113.5
113.5
113.5
113.5
113.5
113.50088
113.5
113.5
113.5
113.5
113.5
113.5
113.5
113.5
113.5
113.5
113.5
113.5
113.5
113.5
113.5
113.5
113.5
113.5
113.5
113.5
113.5
113.5
113.5
113.5
113.5
113.5
113.5
113.5
113.5
113.5
113.5
113.5
113.5
113.5
113.5
113.5
113.5
113.5
113.5
113.5
113.5
113.5
113.5
113.5
113.5
113.5
113.5
113.5
113.5
113.5
113.5
113.5
113.5
113.5
113.5
113.5
113.5
113.5
113.5
113.5
113.5
113.5
113.5
113.5
113.5
113.5
113.5
113.5
113.5
113.5
113.5
113.5
113.5
113.5
113.5
113.5
113.5
113.5
113.5
113.5
113.5
113.5
113.5
113.5
113.5
113.5
113.5
113.5
113.5
113.5
113.5
113.5
113.5
113.5
113.5
113.5
113.5
113.5
113.5
113.5
113.5
113.5
113.5
113.5
113.5
113.5
113.5
113.5
113.5
113.5
113.5
113.5
113.5
113.5
113.5
113.5
113.5
113.5
113.5
113.5
113.5
113.5
113.5
113.5
113.5
113.5
113.5
113.5
113.5
113.5
113.5
113.5
113.5
113.5
113.5
113.5
113.5
113.5
113.5
113.5
113.5
113.5
113.5
113.5
113.5
113.5
113.5
113.5
113.5
113.5
113.5
113.5
113.5
113.5
113.5
113.5
113.5
113.5
113.5
113.5
113.5
113.5
113.5
113.5
113.5
113.5
113.5
113.5
113.5
113.5
113.5
113.5
113.5
113.5
113.5
113.5
113.5
113.5
113.5
113.5
113.5
113.5
113.5
113.5
113.5
)


441
(
0
0
192
192
192
192
192
192
192
192
192
192
192
192
192
192
192
192
192
192
192
192
192
192
192
192
192
192
192
192
192
192
192
192
192
192
192
0
0
96
96
96
96
96
96
96
96
96
96
96
96
96
96
96
96
96
96
96
96
96
96
96
96
96
96
96
96
96
96
96
96
96
96
96.000797
96
96
96
96
96
96
96
96
96
96
96
96
96
96
96
96
96
96
96
96
96
96
96
96
96
96
96
96
96
96
96
96
96
96
96
96
96
96
96
96
96
96
96
96
96
96
96
96
96
96
96
96
96
96
96
96
96
96
96
96
96
96
96
96
96
96
96
96
96
96
96
96
96
96
96
96
96
96
96
96
96
96
96
96
96
96
96
96.000677
96
96
96.00071
96.001316
96.000546
96.001581
96.001436
96
96
96
96
96
96
96
96
96
96
96
96
96
96
96
96
96
96
96
96
96
96
96
96
96
96
96
96
96
96
96
96
96
96
96
96
96
96
96
96
96
96
96
96
96
96
96
96
96
96
96
96
96
96
96
96
96.000911
98.370789
96
96
96
96
96
96
96
96
96
96
96
96
96
96
96
96
96
96
96
96
96
96
96
96
96
96
96
96
96.000744
96
96
96
96
96
96
96
96
96
96
96
96
96
96
96
96
96
96
96
96
96
96
96
96
96
96
96
96
96
96
96
96
96
96
96
96
96
96
96
96
96
96
96
96
96
96
96
96
96
96
96
96
96
96
96
96
96
96
96
96
96
96
96
96
96
96
96
96
96
96
96
96
96
96
96
96
96
96
96
96
96
96
96
96
96
96
96
96
96
96
96
96
96
96
96
96
96
96
96
96
96
96
96
96
96
96
96
96
96
96
96
96
96
96
96
96
96
96
96
96
96
96
96
96
96
96
96
96
96
96
96
96
96
96
96
96
96
96
96
96
96
96
96
96
96
96
96
96
96
96
96
96
96
96
96
96
96
96
96
96
96
96
96
96
96
96
96
96
96
96
96
96
96
96
96
96
96
96
96
96
96
96
96
96
96
)


441
(
0
0
149
149
149
149
149
149
149
149
149
149
149
149
149
149
149
149
149
149
149
149
149
149
149
149
149
149
149
149
149
149
149
149
149
149
149
0
0
74.5
74.5
74.5
74.5
74.5
74.5
74.5
74.5
74.5
74.5
74.5
74.5
74.5
74.5
74.5
74.5
74.5
74.5
74.5
74.5
74.5
74.5
74.5
74.5
74.5
74.5
74.5
74.5
74.5
74.5
74.5
74.5
74.5
74.5
74.500619
74.5
74.5
74.5
74.5
74.5
74.5
74.5
74.5
74.5
74.5
74.5
74.5
74.5
74.5
74.5
74.5
74.5
74.5
74.5
74.5
74.5
74.5
74.5
74.5
74.5
74.5
74.5
74.5
74.5
74.5
74.5
74.5
74.5
74.5
74.5
74.5
74.5
74.5
74.5
74.5
74.5
74.5
74.5
74.5
74.5
74.5
74.5
74.5
74.5
74.5
74.5
74.5
74.5
74.5
74.5
74.5
74.5
74.5
74.5
74.5
74.5
74.5
74.5
74.5
74.5
74.5
74.5
74.5
74.5
74.5
74.5
74.5
74.5
74.5
74.5
74.5
74.5
74.5
74.5
74.5
74.5
74.5
74.5
74.5
74.5
74.5
74.5
74.500525
74.5
74.5
74.500551
74.501021
74.500423
74.501227
74.501114
74.5
74.5
74.5
74.5
74.5
74.5
74.5
74.5
74.5
74.5
74.5
74.5
74.5
74.5
74.5
74.5
74.5
74.5
74.5
74.5
74.5
74.5
74.5
74.5
74.5
74.5
74.5
74.5
74.5
74.5
74.5
74.5
74.5
74.5
74.5
74.5
74.5
74.5
74.5
74.5
74.5
74.5
74.5
74.5
74.5
74.5
74.5
74.5
74.5
74.5
74.5
74.5
74.5
74.5
74.5
74.5
74.500707
76.339831
74.5
74.5
74.5
74.5
74.5
74.5
74.5
74.5
74.5
74.5
74.5
74.5
74.5
74.5
74.5
74.5
74.5
74.5
74.5
74.5
74.5
74.5
74.5
74.5
74.5
74.5
74.5
74.5
74.500578
74.5
74.5
74.5
74.5
74.5
74.5
74.5
74.5
74.5
74.5
74.5
74.5
74.5
74.5
74.5
74.5
74.5
74.5
74.5
74.5
74.5
74.5
74.5
74.5
74.5
74.5
74.5
74.5
74.5
74.5
74.5
74.5
74.5
74.5
74.5
74.5
74.5
74.5
74.5
74.5
74.5
74.5
74.5
74.5
74.5
74.5
74.5
74.5
74.5
74.5
74.5
74.5
74.5
74.5
74.5
74.5
74.5
74.5
74.5
74.5
74.5
74.5
74.5
74.5
74.5
74.5
74.5
74.5
74.5
74.5
74.5
74.5
74.5
74.5
74.5
74.5
74.5
74.5
74.5
74.5
74.5
74.5
74.5
74.5
74.5
74.5
74.5
74.5
74.5
74.5
74.5
74.5
74.5
74.5
74.5
74.5
74.5
74.5
74.5
74.5
74.5
74.5
74.5
74.5
74.5
74.5
74.5
74.5
74.5
74.5
74.5
74.5
74.5
74.5
74.5
74.5
74.5
74.5
74.5
74.5
74.5
74.5
74.5
74.5
74.5
74.5
74.5
74.5
74.5
74.5
74.5
74.5
74.5
74.5
74.5
74.5
74.5
74.5
74.5
74.5
74.5
74.5
74.5
74.5
74.5
74.5
74.5
74.5
74.5
74.5
74.5
74.5
74.5
74.5
74.5
74.5
74.5
74.5
74.5
74.5
74.5
74.5
74.5
74.5
74.5
74.5
74.5
74.5
74.5
74.5
74.5
74.5
74.5
74.5
74.5
74.5
74.5
74.5
74.5
74.5
74.5
74.5
74.5
74.5
74.5
)


441
(
0
0
107
107
107
107
107
107
107
107
107
107
107
107
107
107
107
107
107
107
107
107
107
107
107
107
107
107
107
107
107
107
107
107
107
107
107
0
0
53.5
53.5
53.5
53.5
53.5
53.5
53.5
53.5
53.5
53.5
53.5
53.5
53.5
53.5
53.5
53.5
53.5
53.5
53.5
53.5
53.5
53.5
53.5
53.5
53.5
53.5
53.5
53.5
53.5
53.5
53.5
53.5
53.5
53.5
53.500444
53.5
53.5
53.5
53.5
53.5
53.5
53.5
53.5
53.5
53.5
53.5
53.5
53.5
53.5
53.5
53.5
53.5
53.5
53.5
53.5
53.5
53.5
53.5
53.5
53.5
53.5
53.5
53.5
53.5
53.5
53.5
53.5
53.5
53.5
53.5
53.5
53.5
53.5
53.5
53.5
53.5
53.5
53.5
53.5
53.5
53.5
53.5
53.5
53.5
53.5
53.5
53.5
53.5
53.5
53.5
53.5
53.5
53.5
53.5
53.5
53.5
53.5
53.5
53.5
53.5
53.5
53.5
53.5
53.5
53.5
53.5
53.5
53.5
53.5
53.5
53.5
53.5
53.5
53.5
53.5
53.5
53.5
53.5
53.5
53.5
53.5
53.5
53.500377
53.5
53.5
53.500395
53.500734
53.500304
53.500881
53.5008
53.5
53.5
53.5
53.5
53.5
53.5
53.5
53.5
53.5
53.5
53.5
53.5
53.5
53.5
53.5
53.5
53.5
53.5
53.5
53.5
53.5
53.5
53.5
53.5
53.5
53.5
53.5
53.5
53.5
53.5
53.5
53.5
53.5
53.5
53.5
53.5
53.5
53.5
53.5
53.5
53.5
53.5
53.5
53.5
53.5
53.5
53.5
53.5
53.5
53.5
53.5
53.5
53.5
53.5
53.5
53.5
53.500508
54.821221
53.5
53.5
53.5
53.5
53.5
53.5
53.5
53.5
53.5
53.5
53.5
53.5
53.5
53.5
53.5
53.5
53.5
53.5
53.5
53.5
53.5
53.5
53.5
53.5
53.5
53.5
53.5
53.5
53.500415
53.5
53.5
53.5
53.5
53.5
53.5
53.5
53.5
53.5
53.5
53.5
53.5
53.5
53.5
53.5
53.5
53.5
53.5
53.5
53.5
53.5
53.5
53.5
53.5
53.5
53.5
53.5
53.5
53.5
53.5
53.5
53.5
53.5
53.5
53.5
53.5
53.5
53.5
53.5
53.5
53.5
53.5
53.5
53.5
53.5
53.5
53.5
53.5
53.5
53.5
53.5
53.5
53.5
53.5
53.5
53.5
53.5
53.5
53.5
53.5
53.5
53.5
53.5
53.5
53.5
53.5
53.5
53.5
53.5
53.5
53.5
53.5
53.5
53.5
53.5
53.5
53.5
53.5
53.5
53.5
53.5
53.5
53.5
53.5
53.5
53.5
53.5
53.5
53.5
53.5
53.5
53.5
53.5
53.5
53.5
53.5
53.5
53.5
53.5
53.5
53.5
53.5
53.5
53.5
53.5
53.5
53.5
53.5
53.5
53.5
53.5
53.5
53.5
53.5
53.5
53.5
53.5
53.5
53.5
53.5
53.5
53.5
53.5
53.5
53.5
53.5
53.5
53.5
53.5
53.5
53.5
53.5
53.5
53.5
53.5
53.5
53.5
53.5
53.5
53.5
53.5
53.5
53.5
53.5
53.5
53.5
53.5
53.5
53.5
53.5
53.5
53.5
53.5
53.5
53.5
53.5
53.5
53.5
53.5
53.5
53.5
53.5
53.5
53.5
53.5
53.5
53.5
53.5
53.5
53.5
53.5
53.5
53.5
53.5
53.5
53.5
53.5
53.5
53.5
53.5
53.5
53.5
53.5
53.5
53.5
)

)

End

Finalising parallel run
