/*---------------------------------------------------------------------------*\
  =========                 |
  \\      /  F ield         | OpenFOAM: The Open Source CFD Toolbox
   \\    /   O peration     | Website:  https://openfoam.org
    \\  /    A nd           | Version:  8
     \\/     M anipulation  |
\*---------------------------------------------------------------------------*/
/*   Windows 32 and 64 bit porting by blueCAPE: http://www.bluecape.com.pt   *\
|  Based on Windows porting (2.0.x v4) by Symscape: http://www.symscape.com   |
\*---------------------------------------------------------------------------*/
Build  : 8-53cd1468e263
Exec   : faceAgglomerate -region vegetation -parallel
Date   : Nov 26 2024
Time   : 16:44:07
Host   : "FOAM2"
PID    : 12096
I/O    : uncollated
Case   : C:/MetaFoam_Cases/CR_VS-UMCF_J-DOE08
nProcs : 12
Slaves : 
11
(
"FOAM2.21472"
"FOAM2.18700"
"FOAM2.19372"
"FOAM2.21564"
"FOAM2.24340"
"FOAM2.14908"
"FOAM2.20360"
"FOAM2.19792"
"FOAM2.20088"
"FOAM2.18972"
"FOAM2.14272"
)

Pstream initialized with:
    floatTransfer      : 0
    nProcsSimpleSum    : 0
    commsType          : nonBlocking
    polling iterations : 0
SigFpe : Enabling floating point exception trapping (FOAM_SIGFPE).
fileModificationChecking : Monitoring run-time modified files using timeStampMaster (fileModificationSkew 10)
allowSystemOperations : Allowing user-supplied system call operations

// * * * * * * * * * * * * * * * * * * * * * * * * * * * * * * * * * * * * * //
Create time

Create mesh vegetation for time = 0


Agglomerating patch : left

Agglomerating patch : right

Agglomerating patch : back

Agglomerating patch : front

Agglomerating patch : top

Agglomerating patch : bottom

Agglomerating patch : air_to_vegetation

Writing facesAgglomeration
End

Finalising parallel run
